# generated using pymatgen
data_Ba2H17
_symmetry_space_group_name_H-M   P1
_cell_length_a   3.70890696
_cell_length_b   3.93548627
_cell_length_c   5.79170533
_cell_angle_alpha   79.99357030
_cell_angle_beta   84.84393660
_cell_angle_gamma   62.73325520
_symmetry_Int_Tables_number   1
_chemical_formula_structural   Ba2H17
_chemical_formula_sum   'Ba2 H17'
_cell_volume   73.99605136
_cell_formula_units_Z   1
loop_
 _symmetry_equiv_pos_site_id
 _symmetry_equiv_pos_as_xyz
  1  'x, y, z'
loop_
 _atom_site_type_symbol
 _atom_site_label
 _atom_site_symmetry_multiplicity
 _atom_site_fract_x
 _atom_site_fract_y
 _atom_site_fract_z
 _atom_site_occupancy
  Ba  Ba0  1  0.154262  0.298017  0.146932  1.0
  Ba  Ba1  1  0.635793  0.699879  0.570688  1.0
  H  H2  1  0.117836  0.141673  0.806643  1.0
  H  H3  1  0.132298  0.750149  0.360764  1.0
  H  H4  1  0.138221  0.804824  0.861451  1.0
  H  H5  1  0.141673  0.621072  0.801729  1.0
  H  H6  1  0.280888  0.305072  0.663385  1.0
  H  H7  1  0.332079  0.349477  0.513676  1.0
  H  H8  1  0.401270  0.655853  0.244410  1.0
  H  H9  1  0.489349  0.696939  0.103619  1.0
  H  H10  1  0.600116  0.515289  0.945714  1.0
  H  H11  1  0.618346  0.871088  0.912952  1.0
  H  H12  1  0.632812  0.071174  0.830822  1.0
  H  H13  1  0.647587  0.242868  0.358355  1.0
  H  H14  1  0.681100  0.303951  0.896798  1.0
  H  H15  1  0.837636  0.935916  0.200908  1.0
  H  H16  1  0.883716  0.935948  0.059616  1.0
  H  H17  1  0.944510  0.072020  0.504987  1.0
  H  H18  1  0.964100  0.069838  0.645871  1.0
