# generated using pymatgen
data_BaH7
_symmetry_space_group_name_H-M   Amm2
_cell_length_a   3.04419664
_cell_length_b   5.54951797
_cell_length_c   11.41124260
_cell_angle_alpha   90.00000000
_cell_angle_beta   90.00000000
_cell_angle_gamma   90.00000000
_symmetry_Int_Tables_number   38
_chemical_formula_structural   BaH7
_chemical_formula_sum   'Ba6 H42'
_cell_volume   192.77952314
_cell_formula_units_Z   6
loop_
 _symmetry_equiv_pos_site_id
 _symmetry_equiv_pos_as_xyz
  1  'x, y, z'
  2  '-x, -y, z'
  3  '-x, y, z'
  4  'x, -y, z'
  5  'x, y+1/2, z+1/2'
  6  '-x, -y+1/2, z+1/2'
  7  '-x, y+1/2, z+1/2'
  8  'x, -y+1/2, z+1/2'
loop_
 _atom_site_type_symbol
 _atom_site_label
 _atom_site_symmetry_multiplicity
 _atom_site_fract_x
 _atom_site_fract_y
 _atom_site_fract_z
 _atom_site_occupancy
  Ba  Ba0  2  0.000000  0.000000  0.002175  1.0
  Ba  Ba1  2  0.500000  0.000000  0.289486  1.0
  Ba  Ba2  2  0.500000  0.000000  0.682448  1.0
  H  H3  4  0.000000  0.105241  0.436217  1.0
  H  H4  4  0.000000  0.119083  0.549099  1.0
  H  H5  4  0.000000  0.173830  0.801515  1.0
  H  H6  4  0.000000  0.178166  0.183498  1.0
  H  H7  4  0.000000  0.208587  0.382923  1.0
  H  H8  4  0.000000  0.211823  0.609376  1.0
  H  H9  4  0.500000  0.150503  0.111104  1.0
  H  H10  4  0.500000  0.162406  0.880702  1.0
  H  H11  4  0.500000  0.174903  0.492640  1.0
  H  H12  2  0.000000  0.000000  0.815266  1.0
  H  H13  2  0.500000  0.000000  0.487572  1.0
  H  H14  2  0.500000  0.000000  0.867645  1.0
