# generated using pymatgen
data_Ba2H15
_symmetry_space_group_name_H-M   P-1
_cell_length_a   3.91853179
_cell_length_b   4.25733758
_cell_length_c   4.36938261
_cell_angle_alpha   73.28915306
_cell_angle_beta   65.19152139
_cell_angle_gamma   83.20069106
_symmetry_Int_Tables_number   2
_chemical_formula_structural   Ba2H15
_chemical_formula_sum   'Ba2 H15'
_cell_volume   63.37093818
_cell_formula_units_Z   1
loop_
 _symmetry_equiv_pos_site_id
 _symmetry_equiv_pos_as_xyz
  1  'x, y, z'
  2  '-x, -y, -z'
loop_
 _atom_site_type_symbol
 _atom_site_label
 _atom_site_symmetry_multiplicity
 _atom_site_fract_x
 _atom_site_fract_y
 _atom_site_fract_z
 _atom_site_occupancy
  Ba  Ba0  2  0.316582  0.237299  0.802854  1.0
  H  H1  2  0.094053  0.722011  0.621052  1.0
  H  H2  2  0.098935  0.894261  0.323850  1.0
  H  H3  2  0.202455  0.525246  0.216902  1.0
  H  H4  2  0.210509  0.088067  0.374675  1.0
  H  H5  2  0.214191  0.769760  0.717468  1.0
  H  H6  2  0.292694  0.653161  0.008775  1.0
  H  H7  2  0.396028  0.230494  0.285819  1.0
  H  H8  1  0.000000  0.500000  0.500000  1.0
