# generated using pymatgen
data_BaH17
_symmetry_space_group_name_H-M   C2
_cell_length_a   4.45232824
_cell_length_b   7.78425061
_cell_length_c   3.02489430
_cell_angle_alpha   90.00000000
_cell_angle_beta   91.94227964
_cell_angle_gamma   90.00000000
_symmetry_Int_Tables_number   5
_chemical_formula_structural   BaH17
_chemical_formula_sum   'Ba2 H34'
_cell_volume   104.77667318
_cell_formula_units_Z   2
loop_
 _symmetry_equiv_pos_site_id
 _symmetry_equiv_pos_as_xyz
  1  'x, y, z'
  2  '-x, y, -z'
  3  'x+1/2, y+1/2, z'
  4  '-x+1/2, y+1/2, -z'
loop_
 _atom_site_type_symbol
 _atom_site_label
 _atom_site_symmetry_multiplicity
 _atom_site_fract_x
 _atom_site_fract_y
 _atom_site_fract_z
 _atom_site_occupancy
  Ba  Ba0  2  0.000000  0.466178  0.000000  1.0
  H  H1  4  0.054348  0.065191  0.211610  1.0
  H  H2  4  0.086799  0.679465  0.538933  1.0
  H  H3  4  0.136947  0.894460  0.492243  1.0
  H  H4  4  0.146345  0.189841  0.816254  1.0
  H  H5  4  0.171027  0.082330  0.421913  1.0
  H  H6  4  0.228492  0.721208  0.988847  1.0
  H  H7  4  0.238936  0.817973  0.510675  1.0
  H  H8  2  0.000000  0.247959  0.500000  1.0
  H  H9  2  0.000000  0.816654  0.000000  1.0
  H  H10  2  0.000000  0.923359  0.000000  1.0
