# generated using pymatgen
data_BaH15
_symmetry_space_group_name_H-M   C2
_cell_length_a   5.16691267
_cell_length_b   5.94301130
_cell_length_c   3.14490821
_cell_angle_alpha   90.00000000
_cell_angle_beta   111.05683302
_cell_angle_gamma   90.00000000
_symmetry_Int_Tables_number   5
_chemical_formula_structural   BaH15
_chemical_formula_sum   'Ba2 H30'
_cell_volume   90.12219917
_cell_formula_units_Z   2
loop_
 _symmetry_equiv_pos_site_id
 _symmetry_equiv_pos_as_xyz
  1  'x, y, z'
  2  '-x, y, -z'
  3  'x+1/2, y+1/2, z'
  4  '-x+1/2, y+1/2, -z'
loop_
 _atom_site_type_symbol
 _atom_site_label
 _atom_site_symmetry_multiplicity
 _atom_site_fract_x
 _atom_site_fract_y
 _atom_site_fract_z
 _atom_site_occupancy
  Ba  Ba0  2  0.000000  0.626578  0.500000  1.0
  H  H1  4  0.100712  0.124623  0.977063  1.0
  H  H2  4  0.103841  0.262411  0.479215  1.0
  H  H3  4  0.105657  0.966259  0.328391  1.0
  H  H4  4  0.107218  0.312531  0.239563  1.0
  H  H5  4  0.180605  0.872519  0.095615  1.0
  H  H6  4  0.197237  0.134675  0.828160  1.0
  H  H7  4  0.223604  0.400202  0.068697  1.0
  H  H8  2  0.000000  0.990858  0.500000  1.0
