# generated using pymatgen
data_Ba2H11
_symmetry_space_group_name_H-M   P1
_cell_length_a   2.96766353
_cell_length_b   3.88916918
_cell_length_c   5.50550887
_cell_angle_alpha   90.34923772
_cell_angle_beta   90.25420504
_cell_angle_gamma   112.20977850
_symmetry_Int_Tables_number   1
_chemical_formula_structural   Ba2H11
_chemical_formula_sum   'Ba2 H11'
_cell_volume   58.82601289
_cell_formula_units_Z   1
loop_
 _symmetry_equiv_pos_site_id
 _symmetry_equiv_pos_as_xyz
  1  'x, y, z'
loop_
 _atom_site_type_symbol
 _atom_site_label
 _atom_site_symmetry_multiplicity
 _atom_site_fract_x
 _atom_site_fract_y
 _atom_site_fract_z
 _atom_site_occupancy
  Ba  Ba0  1  0.009191  0.938690  0.327237  1.0
  Ba  Ba1  1  0.190171  0.301922  0.809678  1.0
  H  H2  1  0.006509  0.446310  0.161264  1.0
  H  H3  1  0.274083  0.537719  0.458019  1.0
  H  H4  1  0.333958  0.515375  0.176612  1.0
  H  H5  1  0.443511  0.900090  0.983019  1.0
  H  H6  1  0.484211  0.879096  0.651051  1.0
  H  H7  1  0.516717  0.454129  0.466233  1.0
  H  H8  1  0.658471  0.337953  0.145689  1.0
  H  H9  1  0.675373  0.799220  0.971187  1.0
  H  H10  1  0.754306  0.348466  0.487060  1.0
  H  H11  1  0.899048  0.720496  0.686988  1.0
  H  H12  1  0.937246  0.726003  0.943441  1.0
