# generated using pymatgen
data_BaH10
_symmetry_space_group_name_H-M   C2/m
_cell_length_a   8.38701583
_cell_length_b   3.91229209
_cell_length_c   5.65151415
_cell_angle_alpha   90.00000000
_cell_angle_beta   121.74439585
_cell_angle_gamma   90.00000000
_symmetry_Int_Tables_number   12
_chemical_formula_structural   BaH10
_chemical_formula_sum   'Ba4 H40'
_cell_volume   157.69890933
_cell_formula_units_Z   4
loop_
 _symmetry_equiv_pos_site_id
 _symmetry_equiv_pos_as_xyz
  1  'x, y, z'
  2  '-x, -y, -z'
  3  '-x, y, -z'
  4  'x, -y, z'
  5  'x+1/2, y+1/2, z'
  6  '-x+1/2, -y+1/2, -z'
  7  '-x+1/2, y+1/2, -z'
  8  'x+1/2, -y+1/2, z'
loop_
 _atom_site_type_symbol
 _atom_site_label
 _atom_site_symmetry_multiplicity
 _atom_site_fract_x
 _atom_site_fract_y
 _atom_site_fract_z
 _atom_site_occupancy
  Ba  Ba0  4  0.198184  0.000000  0.245289  1.0
  H  H1  8  0.010051  0.299136  0.665884  1.0
  H  H2  8  0.075450  0.207449  0.819872  1.0
  H  H3  4  0.038403  0.500000  0.100436  1.0
  H  H4  4  0.125786  0.000000  0.564390  1.0
  H  H5  4  0.129654  0.500000  0.306056  1.0
  H  H6  4  0.183098  0.500000  0.023654  1.0
  H  H7  4  0.219531  0.000000  0.832728  1.0
  H  H8  2  0.000000  0.000000  0.500000  1.0
  H  H9  2  0.000000  0.500000  0.500000  1.0
