# generated using pymatgen
data_Ba2H11
_symmetry_space_group_name_H-M   Cm
_cell_length_a   13.73268722
_cell_length_b   2.95707894
_cell_length_c   2.91936880
_cell_angle_alpha   90.00000000
_cell_angle_beta   102.18556596
_cell_angle_gamma   90.00000000
_symmetry_Int_Tables_number   8
_chemical_formula_structural   Ba2H11
_chemical_formula_sum   'Ba4 H22'
_cell_volume   115.88052294
_cell_formula_units_Z   2
loop_
 _symmetry_equiv_pos_site_id
 _symmetry_equiv_pos_as_xyz
  1  'x, y, z'
  2  'x, -y, z'
  3  'x+1/2, y+1/2, z'
  4  'x+1/2, -y+1/2, z'
loop_
 _atom_site_type_symbol
 _atom_site_label
 _atom_site_symmetry_multiplicity
 _atom_site_fract_x
 _atom_site_fract_y
 _atom_site_fract_z
 _atom_site_occupancy
  Ba  Ba0  2  0.028503  0.000000  0.153980  1.0
  Ba  Ba1  2  0.287199  0.000000  0.398011  1.0
  H  H2  4  0.158239  0.137741  0.775473  1.0
  H  H3  2  0.085335  0.500000  0.708032  1.0
  H  H4  2  0.157745  0.500000  0.134016  1.0
  H  H5  2  0.158764  0.500000  0.415101  1.0
  H  H6  2  0.230632  0.500000  0.842241  1.0
  H  H7  2  0.365269  0.500000  0.974451  1.0
  H  H8  2  0.404329  0.500000  0.529046  1.0
  H  H9  2  0.406936  0.000000  0.065516  1.0
  H  H10  2  0.430197  0.000000  0.801922  1.0
  H  H11  2  0.452029  0.000000  0.525170  1.0
