# generated using pymatgen
data_Ba4H9
_symmetry_space_group_name_H-M   C2/m
_cell_length_a   7.83529662
_cell_length_b   2.97473050
_cell_length_c   7.79606008
_cell_angle_alpha   90.00000000
_cell_angle_beta   95.94223566
_cell_angle_gamma   90.00000000
_symmetry_Int_Tables_number   12
_chemical_formula_structural   Ba4H9
_chemical_formula_sum   'Ba8 H18'
_cell_volume   180.73338874
_cell_formula_units_Z   2
loop_
 _symmetry_equiv_pos_site_id
 _symmetry_equiv_pos_as_xyz
  1  'x, y, z'
  2  '-x, -y, -z'
  3  '-x, y, -z'
  4  'x, -y, z'
  5  'x+1/2, y+1/2, z'
  6  '-x+1/2, -y+1/2, -z'
  7  '-x+1/2, y+1/2, -z'
  8  'x+1/2, -y+1/2, z'
loop_
 _atom_site_type_symbol
 _atom_site_label
 _atom_site_symmetry_multiplicity
 _atom_site_fract_x
 _atom_site_fract_y
 _atom_site_fract_z
 _atom_site_occupancy
  Ba  Ba0  4  0.124197  0.000000  0.878425  1.0
  Ba  Ba1  4  0.129965  0.500000  0.367157  1.0
  H  H2  4  0.084159  0.500000  0.083464  1.0
  H  H3  4  0.088894  0.000000  0.590150  1.0
  H  H4  4  0.162230  0.500000  0.662583  1.0
  H  H5  4  0.166461  0.000000  0.165357  1.0
  H  H6  2  0.000000  0.000000  0.500000  1.0
