# generated using pymatgen
data_Ba3H17
_symmetry_space_group_name_H-M   P1
_cell_length_a   3.77470562
_cell_length_b   3.83302770
_cell_length_c   7.22628444
_cell_angle_alpha   75.39891601
_cell_angle_beta   82.07603534
_cell_angle_gamma   62.30970547
_symmetry_Int_Tables_number   1
_chemical_formula_structural   Ba3H17
_chemical_formula_sum   'Ba3 H17'
_cell_volume   89.56346061
_cell_formula_units_Z   1
loop_
 _symmetry_equiv_pos_site_id
 _symmetry_equiv_pos_as_xyz
  1  'x, y, z'
loop_
 _atom_site_type_symbol
 _atom_site_label
 _atom_site_symmetry_multiplicity
 _atom_site_fract_x
 _atom_site_fract_y
 _atom_site_fract_z
 _atom_site_occupancy
  Ba  Ba0  1  0.269171  0.303985  0.571717  1.0
  Ba  Ba1  1  0.761086  0.974397  0.231081  1.0
  Ba  Ba2  1  0.779067  0.623988  0.904328  1.0
  H  H3  1  0.037288  0.311060  0.298781  1.0
  H  H4  1  0.118985  0.977270  0.878537  1.0
  H  H5  1  0.123233  0.337671  0.178142  1.0
  H  H6  1  0.247980  0.886744  0.409871  1.0
  H  H7  1  0.266782  0.046486  0.060296  1.0
  H  H8  1  0.267473  0.561365  0.065072  1.0
  H  H9  1  0.279004  0.729582  0.743003  1.0
  H  H10  1  0.393886  0.638436  0.169660  1.0
  H  H11  1  0.398443  0.228188  0.964661  1.0
  H  H12  1  0.431926  0.616358  0.292837  1.0
  H  H13  1  0.475128  0.304408  0.847943  1.0
  H  H14  1  0.508964  0.657560  0.642861  1.0
  H  H15  1  0.632999  0.656383  0.525364  1.0
  H  H16  1  0.770264  0.396378  0.404324  1.0
  H  H17  1  0.789177  0.186218  0.740131  1.0
  H  H18  1  0.890235  0.008237  0.636017  1.0
  H  H19  1  0.993830  0.954983  0.511501  1.0
