# generated using pymatgen
data_BaH6
_symmetry_space_group_name_H-M   P-1
_cell_length_a   3.08900142
_cell_length_b   3.86493876
_cell_length_c   5.70856722
_cell_angle_alpha   94.31836305
_cell_angle_beta   100.54610961
_cell_angle_gamma   111.91888107
_symmetry_Int_Tables_number   2
_chemical_formula_structural   BaH6
_chemical_formula_sum   'Ba2 H12'
_cell_volume   61.38330226
_cell_formula_units_Z   2
loop_
 _symmetry_equiv_pos_site_id
 _symmetry_equiv_pos_as_xyz
  1  'x, y, z'
  2  '-x, -y, -z'
loop_
 _atom_site_type_symbol
 _atom_site_label
 _atom_site_symmetry_multiplicity
 _atom_site_fract_x
 _atom_site_fract_y
 _atom_site_fract_z
 _atom_site_occupancy
  Ba  Ba0  2  0.310447  0.275356  0.248362  1.0
  H  H1  2  0.055608  0.673681  0.420225  1.0
  H  H2  2  0.068876  0.350369  0.872186  1.0
  H  H3  2  0.203733  0.907156  0.516101  1.0
  H  H4  2  0.249715  0.730593  0.066409  1.0
  H  H5  2  0.340495  0.121853  0.630206  1.0
  H  H6  2  0.427550  0.173302  0.894165  1.0
