# generated using pymatgen
data_BaH6
_symmetry_space_group_name_H-M   Cm
_cell_length_a   4.15154344
_cell_length_b   4.56531540
_cell_length_c   6.45738557
_cell_angle_alpha   90.00000000
_cell_angle_beta   90.97791957
_cell_angle_gamma   90.00000000
_symmetry_Int_Tables_number   8
_chemical_formula_structural   BaH6
_chemical_formula_sum   'Ba4 H24'
_cell_volume   122.36968173
_cell_formula_units_Z   4
loop_
 _symmetry_equiv_pos_site_id
 _symmetry_equiv_pos_as_xyz
  1  'x, y, z'
  2  'x, -y, z'
  3  'x+1/2, y+1/2, z'
  4  'x+1/2, -y+1/2, z'
loop_
 _atom_site_type_symbol
 _atom_site_label
 _atom_site_symmetry_multiplicity
 _atom_site_fract_x
 _atom_site_fract_y
 _atom_site_fract_z
 _atom_site_occupancy
  Ba  Ba0  2  0.236420  0.500000  0.574925  1.0
  Ba  Ba1  2  0.255349  0.000000  0.050282  1.0
  H  H2  4  0.019548  0.224245  0.307983  1.0
  H  H3  4  0.226293  0.095691  0.727629  1.0
  H  H4  4  0.368818  0.171966  0.353332  1.0
  H  H5  4  0.492452  0.253854  0.814763  1.0
  H  H6  2  0.224278  0.000000  0.430600  1.0
  H  H7  2  0.253496  0.500000  0.219534  1.0
  H  H8  2  0.254502  0.500000  0.082541  1.0
  H  H9  2  0.254862  0.500000  0.913804  1.0
