# generated using pymatgen
data_BaH7
_symmetry_space_group_name_H-M   P-1
_cell_length_a   4.00306462
_cell_length_b   4.36271235
_cell_length_c   4.44910749
_cell_angle_alpha   101.78244394
_cell_angle_beta   115.86530254
_cell_angle_gamma   98.26783568
_symmetry_Int_Tables_number   2
_chemical_formula_structural   BaH7
_chemical_formula_sum   'Ba2 H14'
_cell_volume   66.00790443
_cell_formula_units_Z   2
loop_
 _symmetry_equiv_pos_site_id
 _symmetry_equiv_pos_as_xyz
  1  'x, y, z'
  2  '-x, -y, -z'
loop_
 _atom_site_type_symbol
 _atom_site_label
 _atom_site_symmetry_multiplicity
 _atom_site_fract_x
 _atom_site_fract_y
 _atom_site_fract_z
 _atom_site_occupancy
  Ba  Ba0  2  0.111065  0.249078  0.812787  1.0
  H  H1  2  0.092537  0.297823  0.304483  1.0
  H  H2  2  0.275939  0.504036  0.507183  1.0
  H  H3  2  0.311499  0.843606  0.998437  1.0
  H  H4  2  0.353563  0.680611  0.690441  1.0
  H  H5  2  0.436661  0.004329  0.187292  1.0
  H  H6  2  0.436669  0.651158  0.325139  1.0
  H  H7  2  0.461005  0.161087  0.517152  1.0
