# generated using pymatgen
data_BaH12
_symmetry_space_group_name_H-M   P2/m
_cell_length_a   2.90079384
_cell_length_b   3.88531163
_cell_length_c   3.92724949
_cell_angle_alpha   90.00000000
_cell_angle_beta   109.44523057
_cell_angle_gamma   90.00000000
_symmetry_Int_Tables_number   10
_chemical_formula_structural   BaH12
_chemical_formula_sum   'Ba1 H12'
_cell_volume   41.73731949
_cell_formula_units_Z   1
loop_
 _symmetry_equiv_pos_site_id
 _symmetry_equiv_pos_as_xyz
  1  'x, y, z'
  2  '-x, -y, -z'
  3  '-x, y, -z'
  4  'x, -y, z'
loop_
 _atom_site_type_symbol
 _atom_site_label
 _atom_site_symmetry_multiplicity
 _atom_site_fract_x
 _atom_site_fract_y
 _atom_site_fract_z
 _atom_site_occupancy
  Ba  Ba0  1  0.500000  0.500000  0.000000  1.0
  H  H1  4  0.153321  0.298567  0.449871  1.0
  H  H2  2  0.111982  0.000000  0.182298  1.0
  H  H3  2  0.183751  0.000000  0.739226  1.0
  H  H4  2  0.478756  0.000000  0.245579  1.0
  H  H5  2  0.500000  0.274495  0.500000  1.0
