# generated using pymatgen
data_BaH9
_symmetry_space_group_name_H-M   P-1
_cell_length_a   3.91155017
_cell_length_b   3.92736867
_cell_length_c   5.48480685
_cell_angle_alpha   79.07812154
_cell_angle_beta   79.13264926
_cell_angle_gamma   63.03115398
_symmetry_Int_Tables_number   2
_chemical_formula_structural   BaH9
_chemical_formula_sum   'Ba2 H18'
_cell_volume   73.22647819
_cell_formula_units_Z   2
loop_
 _symmetry_equiv_pos_site_id
 _symmetry_equiv_pos_as_xyz
  1  'x, y, z'
  2  '-x, -y, -z'
loop_
 _atom_site_type_symbol
 _atom_site_label
 _atom_site_symmetry_multiplicity
 _atom_site_fract_x
 _atom_site_fract_y
 _atom_site_fract_z
 _atom_site_occupancy
  Ba  Ba0  2  0.218247  0.700280  0.718885  1.0
  H  H1  2  0.003009  0.258566  0.887576  1.0
  H  H2  2  0.110429  0.289444  0.576611  1.0
  H  H3  2  0.128973  0.610243  0.340935  1.0
  H  H4  2  0.230303  0.144293  0.896701  1.0
  H  H5  2  0.284143  0.373375  0.114403  1.0
  H  H6  2  0.315513  0.837815  0.136229  1.0
  H  H7  2  0.325917  0.124370  0.420644  1.0
  H  H8  2  0.450614  0.935828  0.333090  1.0
  H  H9  2  0.491657  0.222812  0.001648  1.0
