# generated using pymatgen
data_BaH22
_symmetry_space_group_name_H-M   C2/m
_cell_length_a   6.76112212
_cell_length_b   6.10465098
_cell_length_c   3.39954643
_cell_angle_alpha   90.00000000
_cell_angle_beta   116.78339258
_cell_angle_gamma   90.00000000
_symmetry_Int_Tables_number   12
_chemical_formula_structural   BaH22
_chemical_formula_sum   'Ba2 H44'
_cell_volume   125.26050067
_cell_formula_units_Z   2
loop_
 _symmetry_equiv_pos_site_id
 _symmetry_equiv_pos_as_xyz
  1  'x, y, z'
  2  '-x, -y, -z'
  3  '-x, y, -z'
  4  'x, -y, z'
  5  'x+1/2, y+1/2, z'
  6  '-x+1/2, -y+1/2, -z'
  7  '-x+1/2, y+1/2, -z'
  8  'x+1/2, -y+1/2, z'
loop_
 _atom_site_type_symbol
 _atom_site_label
 _atom_site_symmetry_multiplicity
 _atom_site_fract_x
 _atom_site_fract_y
 _atom_site_fract_z
 _atom_site_occupancy
  Ba  Ba0  2  0.000000  0.000000  0.500000  1.0
  H  H1  8  0.009816  0.363562  0.620370  1.0
  H  H2  8  0.059724  0.249785  0.004281  1.0
  H  H3  8  0.246481  0.248458  0.383456  1.0
  H  H4  8  0.248497  0.065235  0.198666  1.0
  H  H5  4  0.133702  0.500000  0.072213  1.0
  H  H6  4  0.134663  0.500000  0.295702  1.0
  H  H7  4  0.250000  0.250000  0.000000  1.0
