# generated using pymatgen
data_BaH13
_symmetry_space_group_name_H-M   Imm2
_cell_length_a   3.89737823
_cell_length_b   5.75903758
_cell_length_c   3.94306576
_cell_angle_alpha   90.00000000
_cell_angle_beta   90.00000000
_cell_angle_gamma   90.00000000
_symmetry_Int_Tables_number   44
_chemical_formula_structural   BaH13
_chemical_formula_sum   'Ba2 H26'
_cell_volume   88.50269318
_cell_formula_units_Z   2
loop_
 _symmetry_equiv_pos_site_id
 _symmetry_equiv_pos_as_xyz
  1  'x, y, z'
  2  '-x, -y, z'
  3  '-x, y, z'
  4  'x, -y, z'
  5  'x+1/2, y+1/2, z+1/2'
  6  '-x+1/2, -y+1/2, z+1/2'
  7  '-x+1/2, y+1/2, z+1/2'
  8  'x+1/2, -y+1/2, z+1/2'
loop_
 _atom_site_type_symbol
 _atom_site_label
 _atom_site_symmetry_multiplicity
 _atom_site_fract_x
 _atom_site_fract_y
 _atom_site_fract_z
 _atom_site_occupancy
  Ba  Ba0  2  0.000000  0.000000  0.166227  1.0
  H  H1  8  0.221839  0.161010  0.658742  1.0
  H  H2  4  0.000000  0.291135  0.772545  1.0
  H  H3  4  0.000000  0.343925  0.423321  1.0
  H  H4  4  0.000000  0.383474  0.927036  1.0
  H  H5  4  0.232235  0.000000  0.658713  1.0
  H  H6  2  0.000000  0.500000  0.436921  1.0
