# generated using pymatgen
data_Ba2H15
_symmetry_space_group_name_H-M   P1
_cell_length_a   3.40616627
_cell_length_b   3.83915501
_cell_length_c   5.73089030
_cell_angle_alpha   100.24682526
_cell_angle_beta   95.70213431
_cell_angle_gamma   114.32642414
_symmetry_Int_Tables_number   1
_chemical_formula_structural   Ba2H15
_chemical_formula_sum   'Ba2 H15'
_cell_volume   65.94155352
_cell_formula_units_Z   1
loop_
 _symmetry_equiv_pos_site_id
 _symmetry_equiv_pos_as_xyz
  1  'x, y, z'
loop_
 _atom_site_type_symbol
 _atom_site_label
 _atom_site_symmetry_multiplicity
 _atom_site_fract_x
 _atom_site_fract_y
 _atom_site_fract_z
 _atom_site_occupancy
  Ba  Ba0  1  0.171225  0.911185  0.066886  1.0
  Ba  Ba1  1  0.884120  0.601518  0.523741  1.0
  H  H2  1  0.030516  0.268123  0.805134  1.0
  H  H3  1  0.129856  0.234260  0.670265  1.0
  H  H4  1  0.193072  0.204878  0.476109  1.0
  H  H5  1  0.284681  0.489049  0.289799  1.0
  H  H6  1  0.474727  0.552957  0.172576  1.0
  H  H7  1  0.483017  0.502962  0.004905  1.0
  H  H8  1  0.495207  0.143673  0.726662  1.0
  H  H9  1  0.498357  0.652343  0.813667  1.0
  H  H10  1  0.562105  0.003368  0.573912  1.0
  H  H11  1  0.571483  0.866386  0.781115  1.0
  H  H12  1  0.575915  0.953276  0.406833  1.0
  H  H13  1  0.588182  0.365028  0.847259  1.0
  H  H14  1  0.777788  0.031990  0.300115  1.0
  H  H15  1  0.853419  0.274496  0.989138  1.0
  H  H16  1  0.874929  0.308604  0.142111  1.0
