# generated using pymatgen
data_BaH6
_symmetry_space_group_name_H-M   P-1
_cell_length_a   3.13911041
_cell_length_b   3.86573629
_cell_length_c   5.75802405
_cell_angle_alpha   92.91256062
_cell_angle_beta   104.41426319
_cell_angle_gamma   111.19415081
_symmetry_Int_Tables_number   2
_chemical_formula_structural   BaH6
_chemical_formula_sum   'Ba2 H12'
_cell_volume   62.32471534
_cell_formula_units_Z   2
loop_
 _symmetry_equiv_pos_site_id
 _symmetry_equiv_pos_as_xyz
  1  'x, y, z'
  2  '-x, -y, -z'
loop_
 _atom_site_type_symbol
 _atom_site_label
 _atom_site_symmetry_multiplicity
 _atom_site_fract_x
 _atom_site_fract_y
 _atom_site_fract_z
 _atom_site_occupancy
  Ba  Ba0  2  0.341971  0.242921  0.751387  1.0
  H  H1  2  0.054855  0.216029  0.079228  1.0
  H  H2  2  0.083373  0.353999  0.386831  1.0
  H  H3  2  0.152800  0.685631  0.895593  1.0
  H  H4  2  0.280723  0.740547  0.537489  1.0
  H  H5  2  0.309184  0.268113  0.380370  1.0
  H  H6  2  0.315075  0.133797  0.130586  1.0
