# generated using pymatgen
data_Ba2H21
_symmetry_space_group_name_H-M   P-1
_cell_length_a   3.71963656
_cell_length_b   3.72790348
_cell_length_c   6.43260271
_cell_angle_alpha   80.27972679
_cell_angle_beta   79.09621489
_cell_angle_gamma   64.59008194
_symmetry_Int_Tables_number   2
_chemical_formula_structural   Ba2H21
_chemical_formula_sum   'Ba2 H21'
_cell_volume   78.72647970
_cell_formula_units_Z   1
loop_
 _symmetry_equiv_pos_site_id
 _symmetry_equiv_pos_as_xyz
  1  'x, y, z'
  2  '-x, -y, -z'
loop_
 _atom_site_type_symbol
 _atom_site_label
 _atom_site_symmetry_multiplicity
 _atom_site_fract_x
 _atom_site_fract_y
 _atom_site_fract_z
 _atom_site_occupancy
  Ba  Ba0  2  0.066367  0.074071  0.763370  1.0
  H  H1  2  0.050335  0.303160  0.420902  1.0
  H  H2  2  0.093888  0.510022  0.959715  1.0
  H  H3  2  0.195104  0.562115  0.532554  1.0
  H  H4  2  0.286056  0.265769  0.249642  1.0
  H  H5  2  0.349674  0.964368  0.426255  1.0
  H  H6  2  0.362059  0.353192  0.128907  1.0
  H  H7  2  0.406766  0.409049  0.793324  1.0
  H  H8  2  0.484238  0.494321  0.667085  1.0
  H  H9  2  0.495124  0.256391  0.499669  1.0
  H  H10  2  0.496059  0.098901  0.961070  1.0
  H  H11  1  0.500000  0.500000  0.000000  1.0
