# generated using pymatgen
data_Ba2H11
_symmetry_space_group_name_H-M   P1
_cell_length_a   2.89051096
_cell_length_b   3.86810245
_cell_length_c   5.74091018
_cell_angle_alpha   94.36834681
_cell_angle_beta   104.48389328
_cell_angle_gamma   111.74298224
_symmetry_Int_Tables_number   1
_chemical_formula_structural   Ba2H11
_chemical_formula_sum   'Ba2 H11'
_cell_volume   56.70020944
_cell_formula_units_Z   1
loop_
 _symmetry_equiv_pos_site_id
 _symmetry_equiv_pos_as_xyz
  1  'x, y, z'
loop_
 _atom_site_type_symbol
 _atom_site_label
 _atom_site_symmetry_multiplicity
 _atom_site_fract_x
 _atom_site_fract_y
 _atom_site_fract_z
 _atom_site_occupancy
  Ba  Ba0  1  0.206360  0.031164  0.337162  1.0
  Ba  Ba1  1  0.676413  0.529965  0.821753  1.0
  H  H2  1  0.011967  0.504065  0.502936  1.0
  H  H3  1  0.077939  0.975825  0.679455  1.0
  H  H4  1  0.092093  0.479796  0.181739  1.0
  H  H5  1  0.107132  0.146665  0.964679  1.0
  H  H6  1  0.348307  0.905116  0.698681  1.0
  H  H7  1  0.421002  0.575786  0.154673  1.0
  H  H8  1  0.463292  0.972774  0.014039  1.0
  H  H9  1  0.572059  0.641070  0.457111  1.0
  H  H10  1  0.781511  0.419364  0.207731  1.0
  H  H11  1  0.783062  0.079682  0.984597  1.0
  H  H12  1  0.840030  0.083335  0.649097  1.0
