# generated using pymatgen
data_BaH9
_symmetry_space_group_name_H-M   Cm
_cell_length_a   7.47486091
_cell_length_b   2.99025519
_cell_length_c   6.61802482
_cell_angle_alpha   90.00000000
_cell_angle_beta   100.68469888
_cell_angle_gamma   90.00000000
_symmetry_Int_Tables_number   8
_chemical_formula_structural   BaH9
_chemical_formula_sum   'Ba4 H36'
_cell_volume   145.35971903
_cell_formula_units_Z   4
loop_
 _symmetry_equiv_pos_site_id
 _symmetry_equiv_pos_as_xyz
  1  'x, y, z'
  2  'x, -y, z'
  3  'x+1/2, y+1/2, z'
  4  'x+1/2, -y+1/2, z'
loop_
 _atom_site_type_symbol
 _atom_site_label
 _atom_site_symmetry_multiplicity
 _atom_site_fract_x
 _atom_site_fract_y
 _atom_site_fract_z
 _atom_site_occupancy
  Ba  Ba0  2  0.312258  0.000000  0.182571  1.0
  Ba  Ba1  2  0.397327  0.000000  0.747858  1.0
  H  H2  4  0.198382  0.114070  0.462425  1.0
  H  H3  2  0.010213  0.500000  0.482668  1.0
  H  H4  2  0.013943  0.000000  0.023338  1.0
  H  H5  2  0.014131  0.000000  0.333632  1.0
  H  H6  2  0.024855  0.000000  0.149695  1.0
  H  H7  2  0.051983  0.000000  0.583692  1.0
  H  H8  2  0.080855  0.500000  0.382484  1.0
  H  H9  2  0.091807  0.500000  0.063478  1.0
  H  H10  2  0.095708  0.000000  0.703564  1.0
  H  H11  2  0.112532  0.500000  0.260534  1.0
  H  H12  2  0.126915  0.000000  0.882798  1.0
  H  H13  2  0.157868  0.500000  0.975917  1.0
  H  H14  2  0.168208  0.500000  0.629137  1.0
  H  H15  2  0.184760  0.500000  0.753566  1.0
  H  H16  2  0.304876  0.500000  0.475781  1.0
  H  H17  2  0.305780  0.500000  0.938905  1.0
  H  H18  2  0.436589  0.500000  0.417594  1.0
