# generated using pymatgen
data_BaH6
_symmetry_space_group_name_H-M   C2/c
_cell_length_a   7.22972124
_cell_length_b   2.99755226
_cell_length_c   6.09025737
_cell_angle_alpha   90.00000000
_cell_angle_beta   115.23874953
_cell_angle_gamma   90.00000000
_symmetry_Int_Tables_number   15
_chemical_formula_structural   BaH6
_chemical_formula_sum   'Ba4 H24'
_cell_volume   119.38539614
_cell_formula_units_Z   4
loop_
 _symmetry_equiv_pos_site_id
 _symmetry_equiv_pos_as_xyz
  1  'x, y, z'
  2  '-x, -y, -z'
  3  '-x, y, -z+1/2'
  4  'x, -y, z+1/2'
  5  'x+1/2, y+1/2, z'
  6  '-x+1/2, -y+1/2, -z'
  7  '-x+1/2, y+1/2, -z+1/2'
  8  'x+1/2, -y+1/2, z+1/2'
loop_
 _atom_site_type_symbol
 _atom_site_label
 _atom_site_symmetry_multiplicity
 _atom_site_fract_x
 _atom_site_fract_y
 _atom_site_fract_z
 _atom_site_occupancy
  Ba  Ba0  4  0.000000  0.001456  0.750000  1.0
  H  H1  8  0.132893  0.470827  0.067763  1.0
  H  H2  8  0.199684  0.755296  0.101605  1.0
  H  H3  8  0.243028  0.053413  0.119388  1.0
