# generated using pymatgen
data_BaH16
_symmetry_space_group_name_H-M   P-1
_cell_length_a   3.51521837
_cell_length_b   3.77049032
_cell_length_c   4.39934863
_cell_angle_alpha   107.73168204
_cell_angle_beta   97.91171332
_cell_angle_gamma   110.38748834
_symmetry_Int_Tables_number   2
_chemical_formula_structural   BaH16
_chemical_formula_sum   'Ba1 H16'
_cell_volume   50.08259078
_cell_formula_units_Z   1
loop_
 _symmetry_equiv_pos_site_id
 _symmetry_equiv_pos_as_xyz
  1  'x, y, z'
  2  '-x, -y, -z'
loop_
 _atom_site_type_symbol
 _atom_site_label
 _atom_site_symmetry_multiplicity
 _atom_site_fract_x
 _atom_site_fract_y
 _atom_site_fract_z
 _atom_site_occupancy
  Ba  Ba0  1  0.500000  0.500000  0.000000  1.0
  H  H1  2  0.021130  0.466216  0.339397  1.0
  H  H2  2  0.061522  0.062996  0.444084  1.0
  H  H3  2  0.132381  0.681818  0.323852  1.0
  H  H4  2  0.159040  0.877884  0.965452  1.0
  H  H5  2  0.168523  0.942303  0.160402  1.0
  H  H6  2  0.304478  0.854338  0.720657  1.0
  H  H7  2  0.387945  0.402479  0.468553  1.0
  H  H8  2  0.453444  0.934447  0.594165  1.0
