# generated using pymatgen
data_Ba2H19
_symmetry_space_group_name_H-M   P-1
_cell_length_a   3.25920857
_cell_length_b   3.78655141
_cell_length_c   6.96591561
_cell_angle_alpha   84.47100147
_cell_angle_beta   81.82201570
_cell_angle_gamma   67.46094073
_symmetry_Int_Tables_number   2
_chemical_formula_structural   Ba2H19
_chemical_formula_sum   'Ba2 H19'
_cell_volume   78.51143489
_cell_formula_units_Z   1
loop_
 _symmetry_equiv_pos_site_id
 _symmetry_equiv_pos_as_xyz
  1  'x, y, z'
  2  '-x, -y, -z'
loop_
 _atom_site_type_symbol
 _atom_site_label
 _atom_site_symmetry_multiplicity
 _atom_site_fract_x
 _atom_site_fract_y
 _atom_site_fract_z
 _atom_site_occupancy
  Ba  Ba0  2  0.269470  0.800912  0.796277  1.0
  H  H1  2  0.004578  0.099981  0.496708  1.0
  H  H2  2  0.020009  0.580850  0.310740  1.0
  H  H3  2  0.048834  0.449335  0.409082  1.0
  H  H4  2  0.084174  0.603045  0.103227  1.0
  H  H5  2  0.267211  0.277452  0.962187  1.0
  H  H6  2  0.386923  0.800626  0.276428  1.0
  H  H7  2  0.403939  0.100804  0.498787  1.0
  H  H8  2  0.425042  0.708747  0.388586  1.0
  H  H9  2  0.445530  0.817034  0.084156  1.0
  H  H10  1  0.500000  0.500000  0.500000  1.0
