# generated using pymatgen
data_Ba16H
_symmetry_space_group_name_H-M   P2/m
_cell_length_a   6.88424353
_cell_length_b   5.87689334
_cell_length_c   6.89065942
_cell_angle_alpha   90.00000000
_cell_angle_beta   93.98121236
_cell_angle_gamma   90.00000000
_symmetry_Int_Tables_number   10
_chemical_formula_structural   Ba16H
_chemical_formula_sum   'Ba16 H1'
_cell_volume   278.10932008
_cell_formula_units_Z   1
loop_
 _symmetry_equiv_pos_site_id
 _symmetry_equiv_pos_as_xyz
  1  'x, y, z'
  2  '-x, -y, -z'
  3  '-x, y, -z'
  4  'x, -y, z'
loop_
 _atom_site_type_symbol
 _atom_site_label
 _atom_site_symmetry_multiplicity
 _atom_site_fract_x
 _atom_site_fract_y
 _atom_site_fract_z
 _atom_site_occupancy
  Ba  Ba0  4  0.213537  0.254796  0.541533  1.0
  Ba  Ba1  4  0.291396  0.249990  0.958134  1.0
  Ba  Ba2  2  0.040533  0.500000  0.209935  1.0
  Ba  Ba3  2  0.043729  0.000000  0.204456  1.0
  Ba  Ba4  2  0.457334  0.000000  0.291006  1.0
  Ba  Ba5  2  0.457404  0.500000  0.287748  1.0
  H  H6  1  0.000000  0.000000  0.500000  1.0
