# generated using pymatgen
data_BaH9
_symmetry_space_group_name_H-M   P1
_cell_length_a   3.79637625
_cell_length_b   3.83747904
_cell_length_c   5.69426571
_cell_angle_alpha   79.26624516
_cell_angle_beta   79.33248383
_cell_angle_gamma   67.67375809
_symmetry_Int_Tables_number   1
_chemical_formula_structural   BaH9
_chemical_formula_sum   'Ba2 H18'
_cell_volume   74.79628446
_cell_formula_units_Z   2
loop_
 _symmetry_equiv_pos_site_id
 _symmetry_equiv_pos_as_xyz
  1  'x, y, z'
loop_
 _atom_site_type_symbol
 _atom_site_label
 _atom_site_symmetry_multiplicity
 _atom_site_fract_x
 _atom_site_fract_y
 _atom_site_fract_z
 _atom_site_occupancy
  Ba  Ba0  1  0.264151  0.361423  0.567499  1.0
  Ba  Ba1  1  0.648159  0.774847  0.009832  1.0
  H  H2  1  0.029182  0.113401  0.079738  1.0
  H  H3  1  0.082053  0.739078  0.234383  1.0
  H  H4  1  0.133017  0.223608  0.223261  1.0
  H  H5  1  0.180432  0.830092  0.781072  1.0
  H  H6  1  0.241401  0.937907  0.345371  1.0
  H  H7  1  0.271082  0.407882  0.088378  1.0
  H  H8  1  0.305881  0.455413  0.934224  1.0
  H  H9  1  0.439020  0.836136  0.411780  1.0
  H  H10  1  0.619305  0.199411  0.229978  1.0
  H  H11  1  0.626821  0.760079  0.608640  1.0
  H  H12  1  0.652262  0.539681  0.695307  1.0
  H  H13  1  0.734818  0.563721  0.394992  1.0
  H  H14  1  0.735978  0.288916  0.795857  1.0
  H  H15  1  0.788695  0.003466  0.307278  1.0
  H  H16  1  0.842650  0.356784  0.353247  1.0
  H  H17  1  0.876914  0.993793  0.523414  1.0
  H  H18  1  0.994908  0.149171  0.936223  1.0
  H  H19  1  0.998972  0.945310  0.667026  1.0
