# generated using pymatgen
data_BaH9
_symmetry_space_group_name_H-M   P-1
_cell_length_a   3.81418231
_cell_length_b   3.88515101
_cell_length_c   5.59115307
_cell_angle_alpha   97.10881405
_cell_angle_beta   93.81351630
_cell_angle_gamma   118.05302715
_symmetry_Int_Tables_number   2
_chemical_formula_structural   BaH9
_chemical_formula_sum   'Ba2 H18'
_cell_volume   71.81768896
_cell_formula_units_Z   2
loop_
 _symmetry_equiv_pos_site_id
 _symmetry_equiv_pos_as_xyz
  1  'x, y, z'
  2  '-x, -y, -z'
loop_
 _atom_site_type_symbol
 _atom_site_label
 _atom_site_symmetry_multiplicity
 _atom_site_fract_x
 _atom_site_fract_y
 _atom_site_fract_z
 _atom_site_occupancy
  Ba  Ba0  2  0.041739  0.819437  0.707035  1.0
  H  H1  2  0.040641  0.689180  0.131387  1.0
  H  H2  2  0.173291  0.407555  0.951831  1.0
  H  H3  2  0.322309  0.842271  0.359838  1.0
  H  H4  2  0.360787  0.004406  0.124100  1.0
  H  H5  2  0.383726  0.522420  0.620896  1.0
  H  H6  2  0.431358  0.631697  0.118387  1.0
  H  H7  2  0.431916  0.448029  0.763473  1.0
  H  H8  2  0.433658  0.193066  0.054118  1.0
  H  H9  2  0.460208  0.760832  0.476580  1.0
