# generated using pymatgen
data_BaH12
_symmetry_space_group_name_H-M   P1
_cell_length_a   3.62814647
_cell_length_b   3.67498096
_cell_length_c   3.74790371
_cell_angle_alpha   71.16499876
_cell_angle_beta   69.89039354
_cell_angle_gamma   67.51151475
_symmetry_Int_Tables_number   1
_chemical_formula_structural   BaH12
_chemical_formula_sum   'Ba1 H12'
_cell_volume   42.28990320
_cell_formula_units_Z   1
loop_
 _symmetry_equiv_pos_site_id
 _symmetry_equiv_pos_as_xyz
  1  'x, y, z'
loop_
 _atom_site_type_symbol
 _atom_site_label
 _atom_site_symmetry_multiplicity
 _atom_site_fract_x
 _atom_site_fract_y
 _atom_site_fract_z
 _atom_site_occupancy
  Ba  Ba0  1  0.259834  0.155535  0.554379  1.0
  H  H1  1  0.175262  0.542516  0.941047  1.0
  H  H2  1  0.313138  0.636783  0.037627  1.0
  H  H3  1  0.398240  0.754074  0.157116  1.0
  H  H4  1  0.595700  0.500046  0.654174  1.0
  H  H5  1  0.599349  0.220903  0.913305  1.0
  H  H6  1  0.656863  0.573181  0.411251  1.0
  H  H7  1  0.669122  0.978132  0.983316  1.0
  H  H8  1  0.836806  0.379750  0.107740  1.0
  H  H9  1  0.838080  0.712794  0.763656  1.0
  H  H10  1  0.867796  0.787172  0.238903  1.0
  H  H11  1  0.901754  0.141115  0.185090  1.0
  H  H12  1  0.905617  0.793487  0.512550  1.0
