# generated using pymatgen
data_BaH6
_symmetry_space_group_name_H-M   Aea2
_cell_length_a   4.26485717
_cell_length_b   6.60503423
_cell_length_c   4.25992018
_cell_angle_alpha   90.00000000
_cell_angle_beta   90.00000000
_cell_angle_gamma   90.00000000
_symmetry_Int_Tables_number   41
_chemical_formula_structural   BaH6
_chemical_formula_sum   'Ba4 H24'
_cell_volume   119.99993911
_cell_formula_units_Z   4
loop_
 _symmetry_equiv_pos_site_id
 _symmetry_equiv_pos_as_xyz
  1  'x, y, z'
  2  '-x, -y, z'
  3  '-x+1/2, y+1/2, z'
  4  'x+1/2, -y+1/2, z'
  5  'x, y+1/2, z+1/2'
  6  '-x, -y+1/2, z+1/2'
  7  '-x+1/2, y, z+1/2'
  8  'x+1/2, -y, z+1/2'
loop_
 _atom_site_type_symbol
 _atom_site_label
 _atom_site_symmetry_multiplicity
 _atom_site_fract_x
 _atom_site_fract_y
 _atom_site_fract_z
 _atom_site_occupancy
  Ba  Ba0  4  0.000000  0.000000  0.838312  1.0
  H  H1  8  0.015791  0.371717  0.823699  1.0
  H  H2  8  0.119098  0.198488  0.451971  1.0
  H  H3  8  0.248529  0.254868  0.101437  1.0
