# generated using pymatgen
data_BaH19
_symmetry_space_group_name_H-M   P1
_cell_length_a   3.74461832
_cell_length_b   4.12032696
_cell_length_c   4.37140423
_cell_angle_alpha   116.83791593
_cell_angle_beta   105.53924041
_cell_angle_gamma   100.24027844
_symmetry_Int_Tables_number   1
_chemical_formula_structural   BaH19
_chemical_formula_sum   'Ba1 H19'
_cell_volume   54.36880827
_cell_formula_units_Z   1
loop_
 _symmetry_equiv_pos_site_id
 _symmetry_equiv_pos_as_xyz
  1  'x, y, z'
loop_
 _atom_site_type_symbol
 _atom_site_label
 _atom_site_symmetry_multiplicity
 _atom_site_fract_x
 _atom_site_fract_y
 _atom_site_fract_z
 _atom_site_occupancy
  Ba  Ba0  1  0.266441  0.437446  0.157192  1.0
  H  H1  1  0.060345  0.789258  0.935042  1.0
  H  H2  1  0.132184  0.286762  0.568499  1.0
  H  H3  1  0.143847  0.878517  0.626632  1.0
  H  H4  1  0.247788  0.755908  0.872360  1.0
  H  H5  1  0.310595  0.076063  0.402599  1.0
  H  H6  1  0.356380  0.996435  0.670997  1.0
  H  H7  1  0.460292  0.618034  0.754095  1.0
  H  H8  1  0.524001  0.091227  0.385772  1.0
  H  H9  1  0.636908  0.026036  0.145496  1.0
  H  H10  1  0.644087  0.460789  0.808745  1.0
  H  H11  1  0.668647  0.295568  0.854774  1.0
  H  H12  1  0.684691  0.143785  0.054754  1.0
  H  H13  1  0.695793  0.828862  0.744408  1.0
  H  H14  1  0.775938  0.946990  0.641932  1.0
  H  H15  1  0.800283  0.472478  0.555079  1.0
  H  H16  1  0.848426  0.771357  0.283380  1.0
  H  H17  1  0.868034  0.548282  0.438479  1.0
  H  H18  1  0.922519  0.180451  0.559119  1.0
  H  H19  1  0.925444  0.839539  0.158821  1.0
