# generated using pymatgen
data_Ba2H11
_symmetry_space_group_name_H-M   P1
_cell_length_a   3.76379733
_cell_length_b   3.85294499
_cell_length_c   4.92518437
_cell_angle_alpha   79.24538065
_cell_angle_beta   67.72381555
_cell_angle_gamma   60.87279797
_symmetry_Int_Tables_number   1
_chemical_formula_structural   Ba2H11
_chemical_formula_sum   'Ba2 H11'
_cell_volume   57.73479996
_cell_formula_units_Z   1
loop_
 _symmetry_equiv_pos_site_id
 _symmetry_equiv_pos_as_xyz
  1  'x, y, z'
loop_
 _atom_site_type_symbol
 _atom_site_label
 _atom_site_symmetry_multiplicity
 _atom_site_fract_x
 _atom_site_fract_y
 _atom_site_fract_z
 _atom_site_occupancy
  Ba  Ba0  1  0.075872  0.182063  0.682007  1.0
  Ba  Ba1  1  0.315254  0.682453  0.181678  1.0
  H  H2  1  0.033996  0.366245  0.096385  1.0
  H  H3  1  0.337073  0.516236  0.770034  1.0
  H  H4  1  0.461764  0.169764  0.930454  1.0
  H  H5  1  0.485963  0.539170  0.589188  1.0
  H  H6  1  0.633095  0.995795  0.277063  1.0
  H  H7  1  0.644281  0.039747  0.081015  1.0
  H  H8  1  0.688040  0.700371  0.446465  1.0
  H  H9  1  0.706485  0.164193  0.435659  1.0
  H  H10  1  0.750013  0.841330  0.680007  1.0
  H  H11  1  0.905755  0.313333  0.276790  1.0
  H  H12  1  0.938459  0.689038  0.913311  1.0
