# generated using pymatgen
data_BaH6
_symmetry_space_group_name_H-M   Imm2
_cell_length_a   3.07570779
_cell_length_b   6.53225408
_cell_length_c   3.01779834
_cell_angle_alpha   90.00000000
_cell_angle_beta   90.00000000
_cell_angle_gamma   90.00000000
_symmetry_Int_Tables_number   44
_chemical_formula_structural   BaH6
_chemical_formula_sum   'Ba2 H12'
_cell_volume   60.63150624
_cell_formula_units_Z   2
loop_
 _symmetry_equiv_pos_site_id
 _symmetry_equiv_pos_as_xyz
  1  'x, y, z'
  2  '-x, -y, z'
  3  '-x, y, z'
  4  'x, -y, z'
  5  'x+1/2, y+1/2, z+1/2'
  6  '-x+1/2, -y+1/2, z+1/2'
  7  '-x+1/2, y+1/2, z+1/2'
  8  'x+1/2, -y+1/2, z+1/2'
loop_
 _atom_site_type_symbol
 _atom_site_label
 _atom_site_symmetry_multiplicity
 _atom_site_fract_x
 _atom_site_fract_y
 _atom_site_fract_z
 _atom_site_occupancy
  Ba  Ba0  2  0.000000  0.000000  0.022924  1.0
  H  H1  4  0.000000  0.257471  0.472193  1.0
  H  H2  4  0.000000  0.301816  0.770095  1.0
  H  H3  4  0.000000  0.371996  0.056745  1.0
