# generated using pymatgen
data_BaH19
_symmetry_space_group_name_H-M   P1
_cell_length_a   4.02985981
_cell_length_b   4.03999931
_cell_length_c   4.26767661
_cell_angle_alpha   79.56729479
_cell_angle_beta   63.86377978
_cell_angle_gamma   62.56749359
_symmetry_Int_Tables_number   1
_chemical_formula_structural   BaH19
_chemical_formula_sum   'Ba1 H19'
_cell_volume   55.34127012
_cell_formula_units_Z   1
loop_
 _symmetry_equiv_pos_site_id
 _symmetry_equiv_pos_as_xyz
  1  'x, y, z'
loop_
 _atom_site_type_symbol
 _atom_site_label
 _atom_site_symmetry_multiplicity
 _atom_site_fract_x
 _atom_site_fract_y
 _atom_site_fract_z
 _atom_site_occupancy
  Ba  Ba0  1  0.047319  0.360834  0.124222  1.0
  H  H1  1  0.060690  0.687046  0.638088  1.0
  H  H2  1  0.060810  0.874339  0.865453  1.0
  H  H3  1  0.203330  0.817346  0.968378  1.0
  H  H4  1  0.225644  0.011091  0.566784  1.0
  H  H5  1  0.229095  0.204585  0.585011  1.0
  H  H6  1  0.366967  0.660066  0.212929  1.0
  H  H7  1  0.391189  0.794045  0.315676  1.0
  H  H8  1  0.470361  0.551158  0.600886  1.0
  H  H9  1  0.496935  0.348461  0.561128  1.0
  H  H10  1  0.533332  0.228311  0.284722  1.0
  H  H11  1  0.561507  0.828495  0.813032  1.0
  H  H12  1  0.616645  0.766323  0.562806  1.0
  H  H13  1  0.641664  0.441746  0.876851  1.0
  H  H14  1  0.644264  0.028056  0.180246  1.0
  H  H15  1  0.662300  0.914468  0.903755  1.0
  H  H16  1  0.738603  0.232841  0.821118  1.0
  H  H17  1  0.798569  0.922916  0.440256  1.0
  H  H18  1  0.861548  0.017164  0.551426  1.0
  H  H19  1  0.998870  0.538379  0.608838  1.0
