# generated using pymatgen
data_BaH19
_symmetry_space_group_name_H-M   P-1
_cell_length_a   3.95509997
_cell_length_b   4.07180373
_cell_length_c   4.28878619
_cell_angle_alpha   115.39848016
_cell_angle_beta   104.99206342
_cell_angle_gamma   101.70503420
_symmetry_Int_Tables_number   2
_chemical_formula_structural   BaH19
_chemical_formula_sum   'Ba1 H19'
_cell_volume   56.23621164
_cell_formula_units_Z   1
loop_
 _symmetry_equiv_pos_site_id
 _symmetry_equiv_pos_as_xyz
  1  'x, y, z'
  2  '-x, -y, -z'
loop_
 _atom_site_type_symbol
 _atom_site_label
 _atom_site_symmetry_multiplicity
 _atom_site_fract_x
 _atom_site_fract_y
 _atom_site_fract_z
 _atom_site_occupancy
  Ba  Ba0  1  0.000000  0.000000  0.000000  1.0
  H  H1  2  0.066174  0.615026  0.369406  1.0
  H  H2  2  0.144828  0.162013  0.611222  1.0
  H  H3  2  0.192377  0.651860  0.231995  1.0
  H  H4  2  0.317872  0.589978  0.019684  1.0
  H  H5  2  0.345064  0.221501  0.613000  1.0
  H  H6  2  0.408179  0.883281  0.739828  1.0
  H  H7  2  0.409345  0.666752  0.903298  1.0
  H  H8  2  0.459767  0.479285  0.575610  1.0
  H  H9  2  0.473369  0.942939  0.625148  1.0
  H  H10  1  0.000000  0.500000  0.500000  1.0
