# generated using pymatgen
data_BaH11
_symmetry_space_group_name_H-M   P-1
_cell_length_a   3.80578910
_cell_length_b   4.53918358
_cell_length_c   5.27140820
_cell_angle_alpha   97.92735191
_cell_angle_beta   100.57643400
_cell_angle_gamma   113.95598271
_symmetry_Int_Tables_number   2
_chemical_formula_structural   BaH11
_chemical_formula_sum   'Ba2 H22'
_cell_volume   79.48570139
_cell_formula_units_Z   2
loop_
 _symmetry_equiv_pos_site_id
 _symmetry_equiv_pos_as_xyz
  1  'x, y, z'
  2  '-x, -y, -z'
loop_
 _atom_site_type_symbol
 _atom_site_label
 _atom_site_symmetry_multiplicity
 _atom_site_fract_x
 _atom_site_fract_y
 _atom_site_fract_z
 _atom_site_occupancy
  Ba  Ba0  2  0.480211  0.158846  0.768525  1.0
  H  H1  2  0.009477  0.663822  0.778508  1.0
  H  H2  2  0.011808  0.918871  0.013362  1.0
  H  H3  2  0.019412  0.720569  0.429356  1.0
  H  H4  2  0.107096  0.494038  0.847735  1.0
  H  H5  2  0.134632  0.228483  0.321618  1.0
  H  H6  2  0.135301  0.363763  0.944346  1.0
  H  H7  2  0.150942  0.053753  0.364114  1.0
  H  H8  2  0.169912  0.644491  0.508284  1.0
  H  H9  2  0.374109  0.309360  0.137397  1.0
  H  H10  2  0.400640  0.520507  0.515573  1.0
  H  H11  2  0.423674  0.652062  0.758642  1.0
