# generated using pymatgen
data_Ba2H21
_symmetry_space_group_name_H-M   P-1
_cell_length_a   3.97426032
_cell_length_b   3.99695766
_cell_length_c   5.30270605
_cell_angle_alpha   78.10312113
_cell_angle_beta   89.62951969
_cell_angle_gamma   89.05202334
_symmetry_Int_Tables_number   2
_chemical_formula_structural   Ba2H21
_chemical_formula_sum   'Ba2 H21'
_cell_volume   82.41222701
_cell_formula_units_Z   1
loop_
 _symmetry_equiv_pos_site_id
 _symmetry_equiv_pos_as_xyz
  1  'x, y, z'
  2  '-x, -y, -z'
loop_
 _atom_site_type_symbol
 _atom_site_label
 _atom_site_symmetry_multiplicity
 _atom_site_fract_x
 _atom_site_fract_y
 _atom_site_fract_z
 _atom_site_occupancy
  Ba  Ba0  2  0.083684  0.196915  0.733878  1.0
  H  H1  2  0.117968  0.342572  0.139856  1.0
  H  H2  2  0.153730  0.295321  0.296201  1.0
  H  H3  2  0.265423  0.610960  0.973955  1.0
  H  H4  2  0.274168  0.731942  0.608248  1.0
  H  H5  2  0.308090  0.682395  0.770426  1.0
  H  H6  2  0.400118  0.978695  0.433696  1.0
  H  H7  2  0.414265  0.066688  0.075245  1.0
  H  H8  2  0.415206  0.048166  0.241399  1.0
  H  H9  2  0.415540  0.557322  0.313549  1.0
  H  H10  2  0.418100  0.622262  0.124823  1.0
  H  H11  1  0.500000  0.500000  0.500000  1.0
