# generated using pymatgen
data_BaH5
_symmetry_space_group_name_H-M   C2/m
_cell_length_a   13.44491390
_cell_length_b   2.94886213
_cell_length_c   2.92307639
_cell_angle_alpha   90.00000000
_cell_angle_beta   99.54152220
_cell_angle_gamma   90.00000000
_symmetry_Int_Tables_number   12
_chemical_formula_structural   BaH5
_chemical_formula_sum   'Ba4 H20'
_cell_volume   114.28850891
_cell_formula_units_Z   4
loop_
 _symmetry_equiv_pos_site_id
 _symmetry_equiv_pos_as_xyz
  1  'x, y, z'
  2  '-x, -y, -z'
  3  '-x, y, -z'
  4  'x, -y, z'
  5  'x+1/2, y+1/2, z'
  6  '-x+1/2, -y+1/2, -z'
  7  '-x+1/2, y+1/2, -z'
  8  'x+1/2, -y+1/2, z'
loop_
 _atom_site_type_symbol
 _atom_site_label
 _atom_site_symmetry_multiplicity
 _atom_site_fract_x
 _atom_site_fract_y
 _atom_site_fract_z
 _atom_site_occupancy
  Ba  Ba0  4  0.132839  0.000000  0.589890  1.0
  H  H1  4  0.000000  0.136681  0.000000  1.0
  H  H2  4  0.000538  0.500000  0.360084  1.0
  H  H3  4  0.076335  0.500000  0.050294  1.0
  H  H4  4  0.208572  0.500000  0.107444  1.0
  H  H5  4  0.245780  0.500000  0.828998  1.0
