# generated using pymatgen
data_BaH7
_symmetry_space_group_name_H-M   C2/m
_cell_length_a   5.97203821
_cell_length_b   5.56082811
_cell_length_c   3.84973367
_cell_angle_alpha   90.00000000
_cell_angle_beta   94.07768649
_cell_angle_gamma   90.00000000
_symmetry_Int_Tables_number   12
_chemical_formula_structural   BaH7
_chemical_formula_sum   'Ba4 H28'
_cell_volume   127.52400555
_cell_formula_units_Z   4
loop_
 _symmetry_equiv_pos_site_id
 _symmetry_equiv_pos_as_xyz
  1  'x, y, z'
  2  '-x, -y, -z'
  3  '-x, y, -z'
  4  'x, -y, z'
  5  'x+1/2, y+1/2, z'
  6  '-x+1/2, -y+1/2, -z'
  7  '-x+1/2, y+1/2, -z'
  8  'x+1/2, -y+1/2, z'
loop_
 _atom_site_type_symbol
 _atom_site_label
 _atom_site_symmetry_multiplicity
 _atom_site_fract_x
 _atom_site_fract_y
 _atom_site_fract_z
 _atom_site_occupancy
  Ba  Ba0  4  0.230191  0.500000  0.179039  1.0
  H  H1  8  0.035189  0.190798  0.133004  1.0
  H  H2  8  0.117225  0.106955  0.315905  1.0
  H  H3  8  0.128060  0.350925  0.651573  1.0
  H  H4  4  0.000000  0.325458  0.500000  1.0
