# generated using pymatgen
data_BaH9
_symmetry_space_group_name_H-M   P-1
_cell_length_a   3.09664823
_cell_length_b   3.88823676
_cell_length_c   6.62347981
_cell_angle_alpha   83.50889381
_cell_angle_beta   80.33307347
_cell_angle_gamma   69.47608205
_symmetry_Int_Tables_number   2
_chemical_formula_structural   BaH9
_chemical_formula_sum   'Ba2 H18'
_cell_volume   73.50055408
_cell_formula_units_Z   2
loop_
 _symmetry_equiv_pos_site_id
 _symmetry_equiv_pos_as_xyz
  1  'x, y, z'
  2  '-x, -y, -z'
loop_
 _atom_site_type_symbol
 _atom_site_label
 _atom_site_symmetry_multiplicity
 _atom_site_fract_x
 _atom_site_fract_y
 _atom_site_fract_z
 _atom_site_occupancy
  Ba  Ba0  2  0.242114  0.820255  0.288367  1.0
  H  H1  2  0.009249  0.545311  0.898061  1.0
  H  H2  2  0.044914  0.586924  0.770309  1.0
  H  H3  2  0.129410  0.580668  0.596947  1.0
  H  H4  2  0.164841  0.188783  0.984869  1.0
  H  H5  2  0.272811  0.981791  0.940970  1.0
  H  H6  2  0.306402  0.280710  0.477564  1.0
  H  H7  2  0.414595  0.770662  0.798238  1.0
  H  H8  2  0.458244  0.594430  0.964706  1.0
  H  H9  2  0.471538  0.774136  0.633471  1.0
