# generated using pymatgen
data_BaH13
_symmetry_space_group_name_H-M   P1
_cell_length_a   3.10413462
_cell_length_b   3.96742271
_cell_length_c   4.22818899
_cell_angle_alpha   77.31216218
_cell_angle_beta   69.04889871
_cell_angle_gamma   66.88485247
_symmetry_Int_Tables_number   1
_chemical_formula_structural   BaH13
_chemical_formula_sum   'Ba1 H13'
_cell_volume   44.53429620
_cell_formula_units_Z   1
loop_
 _symmetry_equiv_pos_site_id
 _symmetry_equiv_pos_as_xyz
  1  'x, y, z'
loop_
 _atom_site_type_symbol
 _atom_site_label
 _atom_site_symmetry_multiplicity
 _atom_site_fract_x
 _atom_site_fract_y
 _atom_site_fract_z
 _atom_site_occupancy
  Ba  Ba0  1  0.059557  0.242954  0.739929  1.0
  H  H1  1  0.187007  0.847199  0.244157  1.0
  H  H2  1  0.284323  0.612583  0.262117  1.0
  H  H3  1  0.308436  0.322855  0.160182  1.0
  H  H4  1  0.315576  0.647150  0.921000  1.0
  H  H5  1  0.330519  0.661594  0.727938  1.0
  H  H6  1  0.413437  0.092880  0.172243  1.0
  H  H7  1  0.551376  0.718718  0.427028  1.0
  H  H8  1  0.708630  0.350193  0.310472  1.0
  H  H9  1  0.719767  0.786832  0.998076  1.0
  H  H10  1  0.726138  0.801615  0.482080  1.0
  H  H11  1  0.801681  0.842683  0.687096  1.0
  H  H12  1  0.832359  0.121798  0.320328  1.0
  H  H13  1  0.857663  0.645375  0.130910  1.0
