# generated using pymatgen
data_BaH19
_symmetry_space_group_name_H-M   Cm
_cell_length_a   4.04638525
_cell_length_b   7.26151299
_cell_length_c   3.91683687
_cell_angle_alpha   90.00000000
_cell_angle_beta   90.59908958
_cell_angle_gamma   90.00000000
_symmetry_Int_Tables_number   8
_chemical_formula_structural   BaH19
_chemical_formula_sum   'Ba2 H38'
_cell_volume   115.08165278
_cell_formula_units_Z   2
loop_
 _symmetry_equiv_pos_site_id
 _symmetry_equiv_pos_as_xyz
  1  'x, y, z'
  2  'x, -y, z'
  3  'x+1/2, y+1/2, z'
  4  'x+1/2, -y+1/2, z'
loop_
 _atom_site_type_symbol
 _atom_site_label
 _atom_site_symmetry_multiplicity
 _atom_site_fract_x
 _atom_site_fract_y
 _atom_site_fract_z
 _atom_site_occupancy
  Ba  Ba0  2  0.115059  0.000000  0.319383  1.0
  H  H1  4  0.009681  0.153390  0.806786  1.0
  H  H2  4  0.014869  0.285068  0.154895  1.0
  H  H3  4  0.181413  0.270088  0.048166  1.0
  H  H4  4  0.184183  0.302393  0.494759  1.0
  H  H5  4  0.314505  0.133523  0.833651  1.0
  H  H6  4  0.334685  0.390707  0.829262  1.0
  H  H7  4  0.355537  0.252309  0.466148  1.0
  H  H8  4  0.478341  0.112031  0.731194  1.0
  H  H9  2  0.111806  0.500000  0.191937  1.0
  H  H10  2  0.118044  0.500000  0.996274  1.0
  H  H11  2  0.124596  0.500000  0.540568  1.0
