# generated using pymatgen
data_Ba2H19
_symmetry_space_group_name_H-M   C2
_cell_length_a   7.64817368
_cell_length_b   3.92397000
_cell_length_c   5.05042212
_cell_angle_alpha   90.00000000
_cell_angle_beta   108.86169821
_cell_angle_gamma   90.00000000
_symmetry_Int_Tables_number   5
_chemical_formula_structural   Ba2H19
_chemical_formula_sum   'Ba4 H38'
_cell_volume   143.43023553
_cell_formula_units_Z   2
loop_
 _symmetry_equiv_pos_site_id
 _symmetry_equiv_pos_as_xyz
  1  'x, y, z'
  2  '-x, y, -z'
  3  'x+1/2, y+1/2, z'
  4  '-x+1/2, y+1/2, -z'
loop_
 _atom_site_type_symbol
 _atom_site_label
 _atom_site_symmetry_multiplicity
 _atom_site_fract_x
 _atom_site_fract_y
 _atom_site_fract_z
 _atom_site_occupancy
  Ba  Ba0  4  0.245368  0.225234  0.752237  1.0
  H  H1  4  0.021278  0.955169  0.932050  1.0
  H  H2  4  0.036849  0.001974  0.340141  1.0
  H  H3  4  0.037187  0.543524  0.853196  1.0
  H  H4  4  0.045857  0.438118  0.357641  1.0
  H  H5  4  0.117950  0.731241  0.747547  1.0
  H  H6  4  0.128535  0.225332  0.255585  1.0
  H  H7  4  0.139306  0.228725  0.094597  1.0
  H  H8  4  0.142159  0.727969  0.595764  1.0
  H  H9  2  0.000000  0.469728  0.000000  1.0
  H  H10  2  0.000000  0.478250  0.500000  1.0
  H  H11  2  0.000000  0.986452  0.500000  1.0
