# generated using pymatgen
data_BaH13
_symmetry_space_group_name_H-M   Cm
_cell_length_a   6.43609966
_cell_length_b   4.11009528
_cell_length_c   3.79829792
_cell_angle_alpha   90.00000000
_cell_angle_beta   111.12868604
_cell_angle_gamma   90.00000000
_symmetry_Int_Tables_number   8
_chemical_formula_structural   BaH13
_chemical_formula_sum   'Ba2 H26'
_cell_volume   93.72160677
_cell_formula_units_Z   2
loop_
 _symmetry_equiv_pos_site_id
 _symmetry_equiv_pos_as_xyz
  1  'x, y, z'
  2  'x, -y, z'
  3  'x+1/2, y+1/2, z'
  4  'x+1/2, -y+1/2, z'
loop_
 _atom_site_type_symbol
 _atom_site_label
 _atom_site_symmetry_multiplicity
 _atom_site_fract_x
 _atom_site_fract_y
 _atom_site_fract_z
 _atom_site_occupancy
  Ba  Ba0  2  0.334833  0.000000  0.578574  1.0
  H  H1  4  0.032307  0.338443  0.235871  1.0
  H  H2  4  0.127510  0.162590  0.915064  1.0
  H  H3  4  0.210109  0.297422  0.015761  1.0
  H  H4  4  0.457612  0.318443  0.128658  1.0
  H  H5  2  0.003001  0.000000  0.633385  1.0
  H  H6  2  0.197761  0.500000  0.615226  1.0
  H  H7  2  0.233851  0.500000  0.264418  1.0
  H  H8  2  0.318269  0.500000  0.815040  1.0
  H  H9  2  0.403567  0.500000  0.406999  1.0
