# generated using pymatgen
data_BaH11
_symmetry_space_group_name_H-M   Pmn2_1
_cell_length_a   3.30129522
_cell_length_b   5.78746727
_cell_length_c   4.23929265
_cell_angle_alpha   90.00000000
_cell_angle_beta   90.00000000
_cell_angle_gamma   90.00000000
_symmetry_Int_Tables_number   31
_chemical_formula_structural   BaH11
_chemical_formula_sum   'Ba2 H22'
_cell_volume   80.99651065
_cell_formula_units_Z   2
loop_
 _symmetry_equiv_pos_site_id
 _symmetry_equiv_pos_as_xyz
  1  'x, y, z'
  2  '-x+1/2, -y, z+1/2'
  3  '-x, y, z'
  4  'x+1/2, -y, z+1/2'
loop_
 _atom_site_type_symbol
 _atom_site_label
 _atom_site_symmetry_multiplicity
 _atom_site_fract_x
 _atom_site_fract_y
 _atom_site_fract_z
 _atom_site_occupancy
  Ba  Ba0  2  0.000000  0.738420  0.464294  1.0
  H  H1  4  0.214551  0.335407  0.460929  1.0
  H  H2  4  0.228957  0.806387  0.969049  1.0
  H  H3  2  0.000000  0.016409  0.823474  1.0
  H  H4  2  0.000000  0.019215  0.113889  1.0
  H  H5  2  0.000000  0.094091  0.662125  1.0
  H  H6  2  0.000000  0.098299  0.274134  1.0
  H  H7  2  0.000000  0.430466  0.727236  1.0
  H  H8  2  0.000000  0.433512  0.194954  1.0
  H  H9  2  0.000000  0.501905  0.915558  1.0
