# generated using pymatgen
data_BaH12
_symmetry_space_group_name_H-M   P-1
_cell_length_a   2.99875130
_cell_length_b   3.78240331
_cell_length_c   4.03609606
_cell_angle_alpha   88.14472358
_cell_angle_beta   68.24940743
_cell_angle_gamma   86.22084588
_symmetry_Int_Tables_number   2
_chemical_formula_structural   BaH12
_chemical_formula_sum   'Ba1 H12'
_cell_volume   42.42611685
_cell_formula_units_Z   1
loop_
 _symmetry_equiv_pos_site_id
 _symmetry_equiv_pos_as_xyz
  1  'x, y, z'
  2  '-x, -y, -z'
loop_
 _atom_site_type_symbol
 _atom_site_label
 _atom_site_symmetry_multiplicity
 _atom_site_fract_x
 _atom_site_fract_y
 _atom_site_fract_z
 _atom_site_occupancy
  Ba  Ba0  1  0.500000  0.000000  0.500000  1.0
  H  H1  2  0.093942  0.583992  0.829699  1.0
  H  H2  2  0.132768  0.511934  0.423549  1.0
  H  H3  2  0.139069  0.248149  0.104188  1.0
  H  H4  2  0.208754  0.889033  0.082396  1.0
  H  H5  2  0.388401  0.713916  0.053292  1.0
  H  H6  2  0.437608  0.500308  0.762035  1.0
