# generated using pymatgen
data_BaH12
_symmetry_space_group_name_H-M   C2/m
_cell_length_a   7.37275914
_cell_length_b   2.99722584
_cell_length_c   4.50579778
_cell_angle_alpha   90.00000000
_cell_angle_beta   121.44693611
_cell_angle_gamma   90.00000000
_symmetry_Int_Tables_number   12
_chemical_formula_structural   BaH12
_chemical_formula_sum   'Ba2 H24'
_cell_volume   84.94410009
_cell_formula_units_Z   2
loop_
 _symmetry_equiv_pos_site_id
 _symmetry_equiv_pos_as_xyz
  1  'x, y, z'
  2  '-x, -y, -z'
  3  '-x, y, -z'
  4  'x, -y, z'
  5  'x+1/2, y+1/2, z'
  6  '-x+1/2, -y+1/2, -z'
  7  '-x+1/2, y+1/2, -z'
  8  'x+1/2, -y+1/2, z'
loop_
 _atom_site_type_symbol
 _atom_site_label
 _atom_site_symmetry_multiplicity
 _atom_site_fract_x
 _atom_site_fract_y
 _atom_site_fract_z
 _atom_site_occupancy
  Ba  Ba0  2  0.000000  0.500000  0.500000  1.0
  H  H1  4  0.063176  0.000000  0.175254  1.0
  H  H2  4  0.064572  0.500000  0.059729  1.0
  H  H3  4  0.154365  0.000000  0.997472  1.0
  H  H4  4  0.168633  0.000000  0.379685  1.0
  H  H5  4  0.227773  0.000000  0.916652  1.0
  H  H6  4  0.235256  0.500000  0.327358  1.0
