# generated using pymatgen
data_BaH22
_symmetry_space_group_name_H-M   Cm
_cell_length_a   6.08600153
_cell_length_b   6.07190041
_cell_length_c   4.56279660
_cell_angle_alpha   90.00000000
_cell_angle_beta   128.71876864
_cell_angle_gamma   90.00000000
_symmetry_Int_Tables_number   8
_chemical_formula_structural   BaH22
_chemical_formula_sum   'Ba2 H44'
_cell_volume   131.55518670
_cell_formula_units_Z   2
loop_
 _symmetry_equiv_pos_site_id
 _symmetry_equiv_pos_as_xyz
  1  'x, y, z'
  2  'x, -y, z'
  3  'x+1/2, y+1/2, z'
  4  'x+1/2, -y+1/2, z'
loop_
 _atom_site_type_symbol
 _atom_site_label
 _atom_site_symmetry_multiplicity
 _atom_site_fract_x
 _atom_site_fract_y
 _atom_site_fract_z
 _atom_site_occupancy
  Ba  Ba0  2  0.145252  0.000000  0.010393  1.0
  H  H1  4  0.006687  0.379693  0.953901  1.0
  H  H2  4  0.051452  0.297005  0.276163  1.0
  H  H3  4  0.172434  0.376036  0.043748  1.0
  H  H4  4  0.224105  0.342258  0.776258  1.0
  H  H5  4  0.278379  0.237774  0.744894  1.0
  H  H6  4  0.359117  0.295352  0.472183  1.0
  H  H7  4  0.425223  0.178332  0.558119  1.0
  H  H8  4  0.465513  0.300969  0.253041  1.0
  H  H9  2  0.019569  0.500000  0.607944  1.0
  H  H10  2  0.102245  0.000000  0.478661  1.0
  H  H11  2  0.156773  0.500000  0.460988  1.0
  H  H12  2  0.259044  0.500000  0.407105  1.0
  H  H13  2  0.268022  0.000000  0.612453  1.0
  H  H14  2  0.343245  0.500000  0.162880  1.0
