# generated using pymatgen
data_Ba2H15
_symmetry_space_group_name_H-M   P1
_cell_length_a   3.69824958
_cell_length_b   3.69824958
_cell_length_c   5.64543655
_cell_angle_alpha   101.01737785
_cell_angle_beta   101.01737785
_cell_angle_gamma   114.61665951
_symmetry_Int_Tables_number   1
_chemical_formula_structural   Ba2H15
_chemical_formula_sum   'Ba2 H15'
_cell_volume   65.65462352
_cell_formula_units_Z   1
loop_
 _symmetry_equiv_pos_site_id
 _symmetry_equiv_pos_as_xyz
  1  'x, y, z'
loop_
 _atom_site_type_symbol
 _atom_site_label
 _atom_site_symmetry_multiplicity
 _atom_site_fract_x
 _atom_site_fract_y
 _atom_site_fract_z
 _atom_site_occupancy
  Ba  Ba0  1  0.363119  0.363119  0.726238  1.0
  Ba  Ba1  1  0.636881  0.636881  0.273762  1.0
  H  H2  1  0.000000  0.000000  0.000000  1.0
  H  H3  1  0.011364  0.702636  0.650378  1.0
  H  H4  1  0.021198  0.779898  0.801096  1.0
  H  H5  1  0.058541  0.639173  -0.000000  1.0
  H  H6  1  0.220102  0.978802  0.198904  1.0
  H  H7  1  0.250000  0.750000  0.500000  1.0
  H  H8  1  0.360827  0.941459  0.000000  1.0
  H  H9  1  0.360986  0.052258  0.349622  1.0
  H  H10  1  0.639173  0.058541  -0.000000  1.0
  H  H11  1  0.702636  0.011364  0.650378  1.0
  H  H12  1  0.750000  0.250000  0.500000  1.0
  H  H13  1  0.779898  0.021198  0.801096  1.0
  H  H14  1  0.941459  0.360827  0.000000  1.0
  H  H15  1  0.978802  0.220102  0.198904  1.0
  H  H16  1  0.988636  0.297364  0.349622  1.0
