# generated using pymatgen
data_Ba2H11
_symmetry_space_group_name_H-M   Cm
_cell_length_a   7.28449479
_cell_length_b   3.11130876
_cell_length_c   5.99198684
_cell_angle_alpha   90.00000000
_cell_angle_beta   114.78632093
_cell_angle_gamma   90.00000000
_symmetry_Int_Tables_number   8
_chemical_formula_structural   Ba2H11
_chemical_formula_sum   'Ba4 H22'
_cell_volume   123.29364656
_cell_formula_units_Z   2
loop_
 _symmetry_equiv_pos_site_id
 _symmetry_equiv_pos_as_xyz
  1  'x, y, z'
  2  'x, -y, z'
  3  'x+1/2, y+1/2, z'
  4  'x+1/2, -y+1/2, z'
loop_
 _atom_site_type_symbol
 _atom_site_label
 _atom_site_symmetry_multiplicity
 _atom_site_fract_x
 _atom_site_fract_y
 _atom_site_fract_z
 _atom_site_occupancy
  Ba  Ba0  2  0.121084  0.000000  0.252021  1.0
  Ba  Ba1  2  0.140521  0.000000  0.769496  1.0
  H  H2  2  0.271188  0.500000  0.081807  1.0
  H  H3  2  0.281624  0.500000  0.616936  1.0
  H  H4  2  0.329420  0.500000  0.486042  1.0
  H  H5  2  0.364839  0.500000  0.355205  1.0
  H  H6  2  0.373305  0.500000  0.870652  1.0
  H  H7  2  0.384368  0.000000  0.124869  1.0
  H  H8  2  0.387747  0.000000  0.615451  1.0
  H  H9  2  0.428673  0.000000  0.293088  1.0
  H  H10  2  0.433175  0.000000  0.780808  1.0
  H  H11  2  0.494038  0.000000  0.958347  1.0
  H  H12  2  0.498182  0.000000  0.465204  1.0
