# generated using pymatgen
data_BaH13
_symmetry_space_group_name_H-M   Cm
_cell_length_a   6.22315386
_cell_length_b   4.05690222
_cell_length_c   3.70772786
_cell_angle_alpha   90.00000000
_cell_angle_beta   111.22638641
_cell_angle_gamma   90.00000000
_symmetry_Int_Tables_number   8
_chemical_formula_structural   BaH13
_chemical_formula_sum   'Ba2 H26'
_cell_volume   87.25736027
_cell_formula_units_Z   2
loop_
 _symmetry_equiv_pos_site_id
 _symmetry_equiv_pos_as_xyz
  1  'x, y, z'
  2  'x, -y, z'
  3  'x+1/2, y+1/2, z'
  4  'x+1/2, -y+1/2, z'
loop_
 _atom_site_type_symbol
 _atom_site_label
 _atom_site_symmetry_multiplicity
 _atom_site_fract_x
 _atom_site_fract_y
 _atom_site_fract_z
 _atom_site_occupancy
  Ba  Ba0  2  0.169485  0.500000  0.104218  1.0
  H  H1  4  0.045659  0.170069  0.555429  1.0
  H  H2  4  0.291780  0.191400  0.665898  1.0
  H  H3  4  0.372607  0.345028  0.755037  1.0
  H  H4  4  0.475858  0.160238  0.456480  1.0
  H  H5  2  0.003577  0.000000  0.032333  1.0
  H  H6  2  0.093144  0.000000  0.270706  1.0
  H  H7  2  0.187315  0.000000  0.868295  1.0
  H  H8  2  0.271886  0.000000  0.410496  1.0
  H  H9  2  0.307784  0.000000  0.080509  1.0
