# generated using pymatgen
data_Ba2H11
_symmetry_space_group_name_H-M   Cm
_cell_length_a   7.19960081
_cell_length_b   3.01726335
_cell_length_c   5.83288605
_cell_angle_alpha   90.00000000
_cell_angle_beta   114.48163562
_cell_angle_gamma   90.00000000
_symmetry_Int_Tables_number   8
_chemical_formula_structural   Ba2H11
_chemical_formula_sum   'Ba4 H22'
_cell_volume   115.31649821
_cell_formula_units_Z   2
loop_
 _symmetry_equiv_pos_site_id
 _symmetry_equiv_pos_as_xyz
  1  'x, y, z'
  2  'x, -y, z'
  3  'x+1/2, y+1/2, z'
  4  'x+1/2, -y+1/2, z'
loop_
 _atom_site_type_symbol
 _atom_site_label
 _atom_site_symmetry_multiplicity
 _atom_site_fract_x
 _atom_site_fract_y
 _atom_site_fract_z
 _atom_site_occupancy
  Ba  Ba0  2  0.151364  0.000000  0.685405  1.0
  Ba  Ba1  2  0.163826  0.000000  0.197869  1.0
  H  H2  2  0.008317  0.500000  0.836656  1.0
  H  H3  2  0.011792  0.500000  0.368856  1.0
  H  H4  2  0.294535  0.500000  0.027628  1.0
  H  H5  2  0.298918  0.500000  0.532954  1.0
  H  H6  2  0.359940  0.500000  0.414980  1.0
  H  H7  2  0.360623  0.500000  0.916253  1.0
  H  H8  2  0.400252  0.500000  0.789074  1.0
  H  H9  2  0.406318  0.500000  0.292509  1.0
  H  H10  2  0.415049  0.000000  0.574268  1.0
  H  H11  2  0.420462  0.000000  0.101217  1.0
  H  H12  2  0.457873  0.000000  0.967752  1.0
