# generated using pymatgen
data_Ba5H11
_symmetry_space_group_name_H-M   P-1
_cell_length_a   3.01203489
_cell_length_b   6.03085575
_cell_length_c   6.56048783
_cell_angle_alpha   85.68799500
_cell_angle_beta   76.73240305
_cell_angle_gamma   89.86444112
_symmetry_Int_Tables_number   2
_chemical_formula_structural   Ba5H11
_chemical_formula_sum   'Ba5 H11'
_cell_volume   115.64944752
_cell_formula_units_Z   1
loop_
 _symmetry_equiv_pos_site_id
 _symmetry_equiv_pos_as_xyz
  1  'x, y, z'
  2  '-x, -y, -z'
loop_
 _atom_site_type_symbol
 _atom_site_label
 _atom_site_symmetry_multiplicity
 _atom_site_fract_x
 _atom_site_fract_y
 _atom_site_fract_z
 _atom_site_occupancy
  Ba  Ba0  2  0.201593  0.307754  0.605064  1.0
  Ba  Ba1  2  0.409037  0.104023  0.192367  1.0
  Ba  Ba2  1  0.000000  0.500000  0.000000  1.0
  H  H3  2  0.032862  0.134288  0.930700  1.0
  H  H4  2  0.165789  0.669477  0.665602  1.0
  H  H5  2  0.246240  0.924423  0.537157  1.0
  H  H6  2  0.366538  0.464249  0.266871  1.0
  H  H7  2  0.433243  0.735452  0.133706  1.0
  H  H8  1  0.000000  0.000000  0.500000  1.0
