# generated using pymatgen
data_BaH12
_symmetry_space_group_name_H-M   P-1
_cell_length_a   2.98156345
_cell_length_b   3.85081829
_cell_length_c   3.87259824
_cell_angle_alpha   89.42173852
_cell_angle_beta   70.97053037
_cell_angle_gamma   76.70285628
_symmetry_Int_Tables_number   2
_chemical_formula_structural   BaH12
_chemical_formula_sum   'Ba1 H12'
_cell_volume   40.80440919
_cell_formula_units_Z   1
loop_
 _symmetry_equiv_pos_site_id
 _symmetry_equiv_pos_as_xyz
  1  'x, y, z'
  2  '-x, -y, -z'
loop_
 _atom_site_type_symbol
 _atom_site_label
 _atom_site_symmetry_multiplicity
 _atom_site_fract_x
 _atom_site_fract_y
 _atom_site_fract_z
 _atom_site_occupancy
  Ba  Ba0  1  0.000000  0.000000  0.000000  1.0
  H  H1  2  0.211215  0.731339  0.456108  1.0
  H  H2  2  0.213357  0.471330  0.720362  1.0
  H  H3  2  0.251519  0.288678  0.438099  1.0
  H  H4  2  0.269273  0.413574  0.244098  1.0
  H  H5  2  0.342047  0.902869  0.426386  1.0
  H  H6  2  0.348118  0.446350  0.893804  1.0
