# generated using pymatgen
data_BaH14
_symmetry_space_group_name_H-M   P1
_cell_length_a   3.26053747
_cell_length_b   3.27609771
_cell_length_c   4.50164344
_cell_angle_alpha   88.49723765
_cell_angle_beta   89.76207440
_cell_angle_gamma   89.46857791
_symmetry_Int_Tables_number   1
_chemical_formula_structural   BaH14
_chemical_formula_sum   'Ba1 H14'
_cell_volume   48.06685813
_cell_formula_units_Z   1
loop_
 _symmetry_equiv_pos_site_id
 _symmetry_equiv_pos_as_xyz
  1  'x, y, z'
loop_
 _atom_site_type_symbol
 _atom_site_label
 _atom_site_symmetry_multiplicity
 _atom_site_fract_x
 _atom_site_fract_y
 _atom_site_fract_z
 _atom_site_occupancy
  Ba  Ba0  1  0.388373  0.997459  0.266342  1.0
  H  H1  1  0.018033  0.332235  0.897526  1.0
  H  H2  1  0.209360  0.484655  0.924249  1.0
  H  H3  1  0.267017  0.508227  0.597095  1.0
  H  H4  1  0.288843  0.919647  0.769459  1.0
  H  H5  1  0.469762  0.072968  0.768530  1.0
  H  H6  1  0.514716  0.495829  0.608681  1.0
  H  H7  1  0.587433  0.504013  0.935835  1.0
  H  H8  1  0.772880  0.727443  0.905277  1.0
  H  H9  1  0.861290  0.284704  0.615046  1.0
  H  H10  1  0.870466  0.480327  0.171741  1.0
  H  H11  1  0.884466  0.026673  0.604804  1.0
  H  H12  1  0.889176  0.970028  0.949576  1.0
  H  H13  1  0.895471  0.513709  0.342346  1.0
  H  H14  1  0.914572  0.710212  0.590809  1.0
