# generated using pymatgen
data_BaH8
_symmetry_space_group_name_H-M   P1
_cell_length_a   4.02273493
_cell_length_b   4.04009850
_cell_length_c   4.36146652
_cell_angle_alpha   93.90139928
_cell_angle_beta   95.00827151
_cell_angle_gamma   90.88419445
_symmetry_Int_Tables_number   1
_chemical_formula_structural   BaH8
_chemical_formula_sum   'Ba2 H16'
_cell_volume   70.43307120
_cell_formula_units_Z   2
loop_
 _symmetry_equiv_pos_site_id
 _symmetry_equiv_pos_as_xyz
  1  'x, y, z'
loop_
 _atom_site_type_symbol
 _atom_site_label
 _atom_site_symmetry_multiplicity
 _atom_site_fract_x
 _atom_site_fract_y
 _atom_site_fract_z
 _atom_site_occupancy
  Ba  Ba0  1  0.462075  0.207383  0.451748  1.0
  Ba  Ba1  1  0.886909  0.694879  0.935284  1.0
  H  H2  1  0.039060  0.175458  0.761787  1.0
  H  H3  1  0.069762  0.556359  0.430946  1.0
  H  H4  1  0.148665  0.190173  0.930411  1.0
  H  H5  1  0.236173  0.694974  0.351748  1.0
  H  H6  1  0.353615  0.722690  0.657583  1.0
  H  H7  1  0.376906  0.854271  0.821368  1.0
  H  H8  1  0.386705  0.903059  0.050046  1.0
  H  H9  1  0.386957  0.439587  0.963063  1.0
  H  H10  1  0.399241  0.597527  0.097881  1.0
  H  H11  1  0.625620  0.690267  0.377199  1.0
  H  H12  1  0.629363  0.183736  0.923535  1.0
  H  H13  1  0.792912  0.204750  0.076665  1.0
  H  H14  1  0.816286  0.810057  0.441165  1.0
  H  H15  1  0.970152  0.985516  0.496293  1.0
  H  H16  1  0.971166  0.390251  0.523466  1.0
  H  H17  1  0.974762  0.199624  0.215047  1.0
