# generated using pymatgen
data_Ba2H19
_symmetry_space_group_name_H-M   P-1
_cell_length_a   3.89648827
_cell_length_b   3.97926479
_cell_length_c   5.01726186
_cell_angle_alpha   81.16400813
_cell_angle_beta   79.30293554
_cell_angle_gamma   89.23205408
_symmetry_Int_Tables_number   2
_chemical_formula_structural   Ba2H19
_chemical_formula_sum   'Ba2 H19'
_cell_volume   75.52522250
_cell_formula_units_Z   1
loop_
 _symmetry_equiv_pos_site_id
 _symmetry_equiv_pos_as_xyz
  1  'x, y, z'
  2  '-x, -y, -z'
loop_
 _atom_site_type_symbol
 _atom_site_label
 _atom_site_symmetry_multiplicity
 _atom_site_fract_x
 _atom_site_fract_y
 _atom_site_fract_z
 _atom_site_occupancy
  Ba  Ba0  2  0.406538  0.802123  0.778983  1.0
  H  H1  2  0.056400  0.371980  0.363677  1.0
  H  H2  2  0.067845  0.949588  0.306098  1.0
  H  H3  2  0.094871  0.433499  0.196908  1.0
  H  H4  2  0.108797  0.995753  0.129351  1.0
  H  H5  2  0.158050  0.298507  0.946530  1.0
  H  H6  2  0.190418  0.311537  0.759786  1.0
  H  H7  2  0.231408  0.375472  0.565267  1.0
  H  H8  2  0.327361  0.649082  0.391550  1.0
  H  H9  2  0.361774  0.700048  0.225696  1.0
  H  H10  1  0.000000  0.000000  0.500000  1.0
