# generated using pymatgen
data_BaH16
_symmetry_space_group_name_H-M   Cm
_cell_length_a   5.50367808
_cell_length_b   5.57265591
_cell_length_c   4.16935667
_cell_angle_alpha   90.00000000
_cell_angle_beta   125.56195509
_cell_angle_gamma   90.00000000
_symmetry_Int_Tables_number   8
_chemical_formula_structural   BaH16
_chemical_formula_sum   'Ba2 H32'
_cell_volume   104.02434219
_cell_formula_units_Z   2
loop_
 _symmetry_equiv_pos_site_id
 _symmetry_equiv_pos_as_xyz
  1  'x, y, z'
  2  'x, -y, z'
  3  'x+1/2, y+1/2, z'
  4  'x+1/2, -y+1/2, z'
loop_
 _atom_site_type_symbol
 _atom_site_label
 _atom_site_symmetry_multiplicity
 _atom_site_fract_x
 _atom_site_fract_y
 _atom_site_fract_z
 _atom_site_occupancy
  Ba  Ba0  2  0.441352  0.500000  0.313308  1.0
  H  H1  4  0.048125  0.375082  0.283254  1.0
  H  H2  4  0.119570  0.175139  0.925589  1.0
  H  H3  4  0.210379  0.284021  0.777480  1.0
  H  H4  4  0.263315  0.375912  0.678533  1.0
  H  H5  4  0.340471  0.133798  0.375045  1.0
  H  H6  4  0.405291  0.148792  0.601736  1.0
  H  H7  4  0.495842  0.159826  0.060874  1.0
  H  H8  2  0.137811  0.000000  0.957206  1.0
  H  H9  2  0.434452  0.000000  0.826688  1.0
