# generated using pymatgen
data_BaH10
_symmetry_space_group_name_H-M   P-1
_cell_length_a   3.87724951
_cell_length_b   4.46153804
_cell_length_c   4.76198213
_cell_angle_alpha   98.72221975
_cell_angle_beta   104.14331053
_cell_angle_gamma   96.65113815
_symmetry_Int_Tables_number   2
_chemical_formula_structural   BaH10
_chemical_formula_sum   'Ba2 H20'
_cell_volume   77.94356702
_cell_formula_units_Z   2
loop_
 _symmetry_equiv_pos_site_id
 _symmetry_equiv_pos_as_xyz
  1  'x, y, z'
  2  '-x, -y, -z'
loop_
 _atom_site_type_symbol
 _atom_site_label
 _atom_site_symmetry_multiplicity
 _atom_site_fract_x
 _atom_site_fract_y
 _atom_site_fract_z
 _atom_site_occupancy
  Ba  Ba0  2  0.220938  0.804415  0.216076  1.0
  H  H1  2  0.017863  0.432490  0.442325  1.0
  H  H2  2  0.144240  0.302969  0.235633  1.0
  H  H3  2  0.192944  0.164128  0.557328  1.0
  H  H4  2  0.239845  0.895474  0.712008  1.0
  H  H5  2  0.278882  0.369092  0.704332  1.0
  H  H6  2  0.305560  0.262324  0.098090  1.0
  H  H7  2  0.338557  0.129861  0.949279  1.0
  H  H8  2  0.341498  0.503672  0.858693  1.0
  H  H9  2  0.348820  0.759192  0.699918  1.0
  H  H10  2  0.439004  0.426582  0.442975  1.0
