# generated using pymatgen
data_BaH15
_symmetry_space_group_name_H-M   P1
_cell_length_a   3.07262003
_cell_length_b   3.89628373
_cell_length_c   4.46061694
_cell_angle_alpha   102.12575795
_cell_angle_beta   93.34937759
_cell_angle_gamma   109.30115062
_symmetry_Int_Tables_number   1
_chemical_formula_structural   BaH15
_chemical_formula_sum   'Ba1 H15'
_cell_volume   48.80033533
_cell_formula_units_Z   1
loop_
 _symmetry_equiv_pos_site_id
 _symmetry_equiv_pos_as_xyz
  1  'x, y, z'
loop_
 _atom_site_type_symbol
 _atom_site_label
 _atom_site_symmetry_multiplicity
 _atom_site_fract_x
 _atom_site_fract_y
 _atom_site_fract_z
 _atom_site_occupancy
  Ba  Ba0  1  0.417998  0.793154  0.085520  1.0
  H  H1  1  0.011686  0.895054  0.460226  1.0
  H  H2  1  0.080475  0.107120  0.397466  1.0
  H  H3  1  0.108577  0.234970  0.187700  1.0
  H  H4  1  0.132320  0.168890  0.890416  1.0
  H  H5  1  0.200858  0.235185  0.735782  1.0
  H  H6  1  0.206321  0.460545  0.574815  1.0
  H  H7  1  0.241338  0.661158  0.543902  1.0
  H  H8  1  0.577508  0.957813  0.627868  1.0
  H  H9  1  0.590000  0.354588  0.422584  1.0
  H  H10  1  0.639237  0.155628  0.582027  1.0
  H  H11  1  0.717892  0.347175  0.875077  1.0
  H  H12  1  0.761343  0.354447  0.053383  1.0
  H  H13  1  0.764373  0.574745  0.713779  1.0
  H  H14  1  0.766290  0.491732  0.339208  1.0
  H  H15  1  0.864730  0.791943  0.698682  1.0
