# generated using pymatgen
data_BaH16
_symmetry_space_group_name_H-M   P1
_cell_length_a   3.59520341
_cell_length_b   3.83498447
_cell_length_c   4.54238737
_cell_angle_alpha   113.83843320
_cell_angle_beta   99.25662671
_cell_angle_gamma   104.75127166
_symmetry_Int_Tables_number   1
_chemical_formula_structural   BaH16
_chemical_formula_sum   'Ba1 H16'
_cell_volume   52.87707883
_cell_formula_units_Z   1
loop_
 _symmetry_equiv_pos_site_id
 _symmetry_equiv_pos_as_xyz
  1  'x, y, z'
loop_
 _atom_site_type_symbol
 _atom_site_label
 _atom_site_symmetry_multiplicity
 _atom_site_fract_x
 _atom_site_fract_y
 _atom_site_fract_z
 _atom_site_occupancy
  Ba  Ba0  1  0.084638  0.279654  0.853632  1.0
  H  H1  1  0.031369  0.710989  0.376885  1.0
  H  H2  1  0.182536  0.876867  0.351203  1.0
  H  H3  1  0.214009  0.304221  0.383889  1.0
  H  H4  1  0.288192  0.930891  0.098348  1.0
  H  H5  1  0.426851  0.802149  0.632221  1.0
  H  H6  1  0.439658  0.844790  0.813393  1.0
  H  H7  1  0.504021  0.232521  0.560051  1.0
  H  H8  1  0.556239  0.179311  0.162526  1.0
  H  H9  1  0.592976  0.712727  0.375881  1.0
  H  H10  1  0.596302  0.883558  0.326161  1.0
  H  H11  1  0.689933  0.477807  0.582696  1.0
  H  H12  1  0.692112  0.390417  0.166437  1.0
  H  H13  1  0.693928  0.708485  0.988027  1.0
  H  H14  1  0.921739  0.648067  0.617291  1.0
  H  H15  1  0.924391  0.828992  0.039490  1.0
  H  H16  1  0.986312  0.269066  0.342557  1.0
