# generated using pymatgen
data_BaH12
_symmetry_space_group_name_H-M   C2/m
_cell_length_a   6.18374149
_cell_length_b   4.03096399
_cell_length_c   3.66117952
_cell_angle_alpha   90.00000000
_cell_angle_beta   114.48462048
_cell_angle_gamma   90.00000000
_symmetry_Int_Tables_number   12
_chemical_formula_structural   BaH12
_chemical_formula_sum   'Ba2 H24'
_cell_volume   83.05337483
_cell_formula_units_Z   2
loop_
 _symmetry_equiv_pos_site_id
 _symmetry_equiv_pos_as_xyz
  1  'x, y, z'
  2  '-x, -y, -z'
  3  '-x, y, -z'
  4  'x, -y, z'
  5  'x+1/2, y+1/2, z'
  6  '-x+1/2, -y+1/2, -z'
  7  '-x+1/2, y+1/2, -z'
  8  'x+1/2, -y+1/2, z'
loop_
 _atom_site_type_symbol
 _atom_site_label
 _atom_site_symmetry_multiplicity
 _atom_site_fract_x
 _atom_site_fract_y
 _atom_site_fract_z
 _atom_site_occupancy
  Ba  Ba0  2  0.000000  0.000000  0.500000  1.0
  H  H1  8  0.122521  0.305334  0.060127  1.0
  H  H2  8  0.213695  0.156248  0.176486  1.0
  H  H3  4  0.001978  0.500000  0.254316  1.0
  H  H4  4  0.133551  0.500000  0.477350  1.0
