# generated using pymatgen
data_BaH14
_symmetry_space_group_name_H-M   P-1
_cell_length_a   3.06005169
_cell_length_b   3.85022899
_cell_length_c   4.47023147
_cell_angle_alpha   64.69801323
_cell_angle_beta   82.37707876
_cell_angle_gamma   74.84042964
_symmetry_Int_Tables_number   2
_chemical_formula_structural   BaH14
_chemical_formula_sum   'Ba1 H14'
_cell_volume   45.94515611
_cell_formula_units_Z   1
loop_
 _symmetry_equiv_pos_site_id
 _symmetry_equiv_pos_as_xyz
  1  'x, y, z'
  2  '-x, -y, -z'
loop_
 _atom_site_type_symbol
 _atom_site_label
 _atom_site_symmetry_multiplicity
 _atom_site_fract_x
 _atom_site_fract_y
 _atom_site_fract_z
 _atom_site_occupancy
  Ba  Ba0  1  0.500000  0.500000  0.000000  1.0
  H  H1  2  0.054243  0.210486  0.433569  1.0
  H  H2  2  0.068849  0.431213  0.671480  1.0
  H  H3  2  0.135766  0.025998  0.135438  1.0
  H  H4  2  0.168290  0.198026  0.798579  1.0
  H  H5  2  0.300992  0.074470  0.520687  1.0
  H  H6  2  0.352671  0.898552  0.262843  1.0
  H  H7  2  0.395599  0.608858  0.473758  1.0
