# generated using pymatgen
data_BaH6
_symmetry_space_group_name_H-M   P-1
_cell_length_a   3.02146910
_cell_length_b   3.92261402
_cell_length_c   5.60237667
_cell_angle_alpha   93.40945530
_cell_angle_beta   104.37406876
_cell_angle_gamma   96.18000525
_symmetry_Int_Tables_number   2
_chemical_formula_structural   BaH6
_chemical_formula_sum   'Ba2 H12'
_cell_volume   63.69064926
_cell_formula_units_Z   2
loop_
 _symmetry_equiv_pos_site_id
 _symmetry_equiv_pos_as_xyz
  1  'x, y, z'
  2  '-x, -y, -z'
loop_
 _atom_site_type_symbol
 _atom_site_label
 _atom_site_symmetry_multiplicity
 _atom_site_fract_x
 _atom_site_fract_y
 _atom_site_fract_z
 _atom_site_occupancy
  Ba  Ba0  2  0.121349  0.799516  0.781844  1.0
  H  H1  2  0.052742  0.286043  0.609050  1.0
  H  H2  2  0.251969  0.728672  0.211448  1.0
  H  H3  2  0.262532  0.335543  0.950648  1.0
  H  H4  2  0.424951  0.452384  0.542238  1.0
  H  H5  2  0.429249  0.916369  0.459989  1.0
  H  H6  2  0.481579  0.669683  0.160643  1.0
