# generated using pymatgen
data_BaH23
_symmetry_space_group_name_H-M   P-1
_cell_length_a   3.71919089
_cell_length_b   4.38796939
_cell_length_c   4.46294033
_cell_angle_alpha   97.19509356
_cell_angle_beta   111.97836495
_cell_angle_gamma   91.55252702
_symmetry_Int_Tables_number   2
_chemical_formula_structural   BaH23
_chemical_formula_sum   'Ba1 H23'
_cell_volume   66.79187369
_cell_formula_units_Z   1
loop_
 _symmetry_equiv_pos_site_id
 _symmetry_equiv_pos_as_xyz
  1  'x, y, z'
  2  '-x, -y, -z'
loop_
 _atom_site_type_symbol
 _atom_site_label
 _atom_site_symmetry_multiplicity
 _atom_site_fract_x
 _atom_site_fract_y
 _atom_site_fract_z
 _atom_site_occupancy
  Ba  Ba0  1  0.500000  0.500000  0.500000  1.0
  H  H1  2  0.050492  0.248391  0.609707  1.0
  H  H2  2  0.083637  0.369028  0.765349  1.0
  H  H3  2  0.105700  0.749413  0.749079  1.0
  H  H4  2  0.115052  0.134475  0.037752  1.0
  H  H5  2  0.186691  0.992696  0.360821  1.0
  H  H6  2  0.231443  0.771643  0.111761  1.0
  H  H7  2  0.290744  0.868748  0.796834  1.0
  H  H8  2  0.296294  0.023662  0.549451  1.0
  H  H9  2  0.324935  0.141072  0.024651  1.0
  H  H10  2  0.388319  0.484119  0.975873  1.0
  H  H11  2  0.449631  0.851075  0.165250  1.0
  H  H12  1  0.000000  0.500000  0.000000  1.0
