# generated using pymatgen
data_BaH22
_symmetry_space_group_name_H-M   P1
_cell_length_a   4.09754453
_cell_length_b   4.13812583
_cell_length_c   4.63939248
_cell_angle_alpha   115.96547756
_cell_angle_beta   115.59140228
_cell_angle_gamma   90.23539428
_symmetry_Int_Tables_number   1
_chemical_formula_structural   BaH22
_chemical_formula_sum   'Ba1 H22'
_cell_volume   61.94953081
_cell_formula_units_Z   1
loop_
 _symmetry_equiv_pos_site_id
 _symmetry_equiv_pos_as_xyz
  1  'x, y, z'
loop_
 _atom_site_type_symbol
 _atom_site_label
 _atom_site_symmetry_multiplicity
 _atom_site_fract_x
 _atom_site_fract_y
 _atom_site_fract_z
 _atom_site_occupancy
  Ba  Ba0  1  0.795051  0.061869  0.995049  1.0
  H  H1  1  0.038158  0.357123  0.613705  1.0
  H  H2  1  0.092164  0.593716  0.060224  1.0
  H  H3  1  0.172453  0.948483  0.477878  1.0
  H  H4  1  0.200784  0.089219  0.803212  1.0
  H  H5  1  0.215686  0.400334  0.595357  1.0
  H  H6  1  0.219750  0.802130  0.805956  1.0
  H  H7  1  0.236262  0.302137  0.921192  1.0
  H  H8  1  0.238766  0.757295  0.961195  1.0
  H  H9  1  0.302987  0.598076  0.496703  1.0
  H  H10  1  0.339232  0.035709  0.469254  1.0
  H  H11  1  0.414084  0.112692  0.258405  1.0
  H  H12  1  0.426744  0.649651  0.404808  1.0
  H  H13  1  0.447575  0.298920  0.267988  1.0
  H  H14  1  0.500039  0.613753  0.157349  1.0
  H  H15  1  0.583586  0.421082  0.712125  1.0
  H  H16  1  0.596660  0.574792  0.026467  1.0
  H  H17  1  0.639828  0.935182  0.423423  1.0
  H  H18  1  0.759523  0.432268  0.681776  1.0
  H  H19  1  0.791671  0.576489  0.478274  1.0
  H  H20  1  0.843991  0.037743  0.488126  1.0
  H  H21  1  0.946148  0.668554  0.445248  1.0
  H  H22  1  0.968426  0.646296  0.175406  1.0
