# generated using pymatgen
data_Ba3H10
_symmetry_space_group_name_H-M   C2/m
_cell_length_a   10.94366899
_cell_length_b   2.90781787
_cell_length_c   5.03152699
_cell_angle_alpha   90.00000000
_cell_angle_beta   112.16482226
_cell_angle_gamma   90.00000000
_symmetry_Int_Tables_number   12
_chemical_formula_structural   Ba3H10
_chemical_formula_sum   'Ba6 H20'
_cell_volume   148.28217988
_cell_formula_units_Z   2
loop_
 _symmetry_equiv_pos_site_id
 _symmetry_equiv_pos_as_xyz
  1  'x, y, z'
  2  '-x, -y, -z'
  3  '-x, y, -z'
  4  'x, -y, z'
  5  'x+1/2, y+1/2, z'
  6  '-x+1/2, -y+1/2, -z'
  7  '-x+1/2, y+1/2, -z'
  8  'x+1/2, -y+1/2, z'
loop_
 _atom_site_type_symbol
 _atom_site_label
 _atom_site_symmetry_multiplicity
 _atom_site_fract_x
 _atom_site_fract_y
 _atom_site_fract_z
 _atom_site_occupancy
  Ba  Ba0  4  0.144127  0.500000  0.621787  1.0
  Ba  Ba1  2  0.000000  0.500000  0.000000  1.0
  H  H2  4  0.003194  0.000000  0.332997  1.0
  H  H3  4  0.149091  0.000000  0.284820  1.0
  H  H4  4  0.168329  0.000000  0.986676  1.0
  H  H5  4  0.203234  0.500000  0.234695  1.0
  H  H6  4  0.224529  0.500000  0.092861  1.0
