# generated using pymatgen
data_BaH20
_symmetry_space_group_name_H-M   P-1
_cell_length_a   4.01453300
_cell_length_b   4.10540385
_cell_length_c   4.44432339
_cell_angle_alpha   111.00935970
_cell_angle_beta   115.79827776
_cell_angle_gamma   96.56358139
_symmetry_Int_Tables_number   2
_chemical_formula_structural   BaH20
_chemical_formula_sum   'Ba1 H20'
_cell_volume   58.29210617
_cell_formula_units_Z   1
loop_
 _symmetry_equiv_pos_site_id
 _symmetry_equiv_pos_as_xyz
  1  'x, y, z'
  2  '-x, -y, -z'
loop_
 _atom_site_type_symbol
 _atom_site_label
 _atom_site_symmetry_multiplicity
 _atom_site_fract_x
 _atom_site_fract_y
 _atom_site_fract_z
 _atom_site_occupancy
  Ba  Ba0  1  0.500000  0.500000  0.500000  1.0
  H  H1  2  0.019733  0.283118  0.581783  1.0
  H  H2  2  0.039006  0.054579  0.905183  1.0
  H  H3  2  0.075599  0.552118  0.985239  1.0
  H  H4  2  0.148802  0.895674  0.479268  1.0
  H  H5  2  0.163903  0.663637  0.771556  1.0
  H  H6  2  0.221724  0.138641  0.891629  1.0
  H  H7  2  0.297838  0.885544  0.250896  1.0
  H  H8  2  0.359819  0.835090  0.895325  1.0
  H  H9  2  0.396522  0.413621  0.932839  1.0
  H  H10  2  0.482029  0.072616  0.720843  1.0
