# generated using pymatgen
data_BaH20
_symmetry_space_group_name_H-M   C2/m
_cell_length_a   6.79087233
_cell_length_b   5.70125861
_cell_length_c   3.01080448
_cell_angle_alpha   90.00000000
_cell_angle_beta   96.56686232
_cell_angle_gamma   90.00000000
_symmetry_Int_Tables_number   12
_chemical_formula_structural   BaH20
_chemical_formula_sum   'Ba2 H40'
_cell_volume   115.80307686
_cell_formula_units_Z   2
loop_
 _symmetry_equiv_pos_site_id
 _symmetry_equiv_pos_as_xyz
  1  'x, y, z'
  2  '-x, -y, -z'
  3  '-x, y, -z'
  4  'x, -y, z'
  5  'x+1/2, y+1/2, z'
  6  '-x+1/2, -y+1/2, -z'
  7  '-x+1/2, y+1/2, -z'
  8  'x+1/2, -y+1/2, z'
loop_
 _atom_site_type_symbol
 _atom_site_label
 _atom_site_symmetry_multiplicity
 _atom_site_fract_x
 _atom_site_fract_y
 _atom_site_fract_z
 _atom_site_occupancy
  Ba  Ba0  2  0.000000  0.500000  0.000000  1.0
  H  H1  8  0.085811  0.234474  0.528022  1.0
  H  H2  8  0.086798  0.117911  0.035522  1.0
  H  H3  8  0.184394  0.321058  0.553298  1.0
  H  H4  8  0.197979  0.168962  0.052375  1.0
  H  H5  4  0.090152  0.000000  0.537263  1.0
  H  H6  4  0.209299  0.000000  0.551328  1.0
