# generated using pymatgen
data_BaH21
_symmetry_space_group_name_H-M   P1
_cell_length_a   4.09243578
_cell_length_b   4.34314437
_cell_length_c   4.63072480
_cell_angle_alpha   117.25591115
_cell_angle_beta   114.88701943
_cell_angle_gamma   91.53929673
_symmetry_Int_Tables_number   1
_chemical_formula_structural   BaH21
_chemical_formula_sum   'Ba1 H21'
_cell_volume   63.86561312
_cell_formula_units_Z   1
loop_
 _symmetry_equiv_pos_site_id
 _symmetry_equiv_pos_as_xyz
  1  'x, y, z'
loop_
 _atom_site_type_symbol
 _atom_site_label
 _atom_site_symmetry_multiplicity
 _atom_site_fract_x
 _atom_site_fract_y
 _atom_site_fract_z
 _atom_site_occupancy
  Ba  Ba0  1  0.433162  0.232087  0.668894  1.0
  H  H1  1  0.037010  0.326460  0.026593  1.0
  H  H2  1  0.054388  0.386090  0.893986  1.0
  H  H3  1  0.120489  0.654122  0.690287  1.0
  H  H4  1  0.206091  0.035818  0.048348  1.0
  H  H5  1  0.206988  0.609992  0.431560  1.0
  H  H6  1  0.342454  0.697340  0.149779  1.0
  H  H7  1  0.399908  0.596120  0.415739  1.0
  H  H8  1  0.401570  0.156269  0.127064  1.0
  H  H9  1  0.465426  0.830342  0.877839  1.0
  H  H10  1  0.525077  0.799313  0.184247  1.0
  H  H11  1  0.641813  0.472944  0.324975  1.0
  H  H12  1  0.643348  0.817735  0.846610  1.0
  H  H13  1  0.788877  0.102368  0.398971  1.0
  H  H14  1  0.794795  0.546564  0.292144  1.0
  H  H15  1  0.811310  0.869351  0.692172  1.0
  H  H16  1  0.842682  0.163203  0.267707  1.0
  H  H17  1  0.901657  0.941134  0.603783  1.0
  H  H18  1  0.931243  0.740706  0.208331  1.0
  H  H19  1  0.949007  0.184583  0.130974  1.0
  H  H20  1  0.966098  0.559123  0.716159  1.0
  H  H21  1  0.971728  0.782334  0.072802  1.0
