# generated using pymatgen
data_Ba16H
_symmetry_space_group_name_H-M   P-1
_cell_length_a   5.56202338
_cell_length_b   6.88879969
_cell_length_c   7.77665643
_cell_angle_alpha   76.06565361
_cell_angle_beta   84.50563086
_cell_angle_gamma   75.77792657
_symmetry_Int_Tables_number   2
_chemical_formula_structural   Ba16H
_chemical_formula_sum   'Ba16 H1'
_cell_volume   280.12348419
_cell_formula_units_Z   1
loop_
 _symmetry_equiv_pos_site_id
 _symmetry_equiv_pos_as_xyz
  1  'x, y, z'
  2  '-x, -y, -z'
loop_
 _atom_site_type_symbol
 _atom_site_label
 _atom_site_symmetry_multiplicity
 _atom_site_fract_x
 _atom_site_fract_y
 _atom_site_fract_z
 _atom_site_occupancy
  Ba  Ba0  2  0.051741  0.199295  0.487707  1.0
  Ba  Ba1  2  0.068005  0.678224  0.886762  1.0
  Ba  Ba2  2  0.169780  0.074986  0.860827  1.0
  Ba  Ba3  2  0.197756  0.551703  0.263164  1.0
  Ba  Ba4  2  0.301519  0.946147  0.246181  1.0
  Ba  Ba5  2  0.323452  0.426177  0.636683  1.0
  Ba  Ba6  2  0.426473  0.822229  0.616557  1.0
  Ba  Ba7  2  0.447746  0.307259  0.010829  1.0
  H  H8  1  0.500000  0.000000  0.000000  1.0
