# generated using pymatgen
data_BaH9
_symmetry_space_group_name_H-M   C2/m
_cell_length_a   5.43854448
_cell_length_b   2.95279961
_cell_length_c   4.29719213
_cell_angle_alpha   90.00000000
_cell_angle_beta   91.18358665
_cell_angle_gamma   90.00000000
_symmetry_Int_Tables_number   12
_chemical_formula_structural   BaH9
_chemical_formula_sum   'Ba2 H18'
_cell_volume   68.99359264
_cell_formula_units_Z   2
loop_
 _symmetry_equiv_pos_site_id
 _symmetry_equiv_pos_as_xyz
  1  'x, y, z'
  2  '-x, -y, -z'
  3  '-x, y, -z'
  4  'x, -y, z'
  5  'x+1/2, y+1/2, z'
  6  '-x+1/2, -y+1/2, -z'
  7  '-x+1/2, y+1/2, -z'
  8  'x+1/2, -y+1/2, z'
loop_
 _atom_site_type_symbol
 _atom_site_label
 _atom_site_symmetry_multiplicity
 _atom_site_fract_x
 _atom_site_fract_y
 _atom_site_fract_z
 _atom_site_occupancy
  Ba  Ba0  2  0.000000  0.000000  0.500000  1.0
  H  H1  4  0.025741  0.500000  0.134921  1.0
  H  H2  4  0.176519  0.500000  0.198695  1.0
  H  H3  4  0.181091  0.000000  0.036156  1.0
  H  H4  4  0.191930  0.500000  0.816938  1.0
  H  H5  2  0.000000  0.000000  0.000000  1.0
