# generated using pymatgen
data_BaH18
_symmetry_space_group_name_H-M   P1
_cell_length_a   3.08123284
_cell_length_b   4.36420561
_cell_length_c   4.46469866
_cell_angle_alpha   73.72280978
_cell_angle_beta   89.76388911
_cell_angle_gamma   73.67895830
_symmetry_Int_Tables_number   1
_chemical_formula_structural   BaH18
_chemical_formula_sum   'Ba1 H18'
_cell_volume   55.12665826
_cell_formula_units_Z   1
loop_
 _symmetry_equiv_pos_site_id
 _symmetry_equiv_pos_as_xyz
  1  'x, y, z'
loop_
 _atom_site_type_symbol
 _atom_site_label
 _atom_site_symmetry_multiplicity
 _atom_site_fract_x
 _atom_site_fract_y
 _atom_site_fract_z
 _atom_site_occupancy
  Ba  Ba0  1  0.646869  0.088348  0.132482  1.0
  H  H1  1  0.007998  0.552800  0.054693  1.0
  H  H2  1  0.016495  0.556280  0.328701  1.0
  H  H3  1  0.065580  0.205953  0.446413  1.0
  H  H4  1  0.132950  0.545115  0.884546  1.0
  H  H5  1  0.144259  0.055191  0.793713  1.0
  H  H6  1  0.222441  0.389364  0.692733  1.0
  H  H7  1  0.227903  0.863645  0.522273  1.0
  H  H8  1  0.254989  0.864957  0.856021  1.0
  H  H9  1  0.345189  0.719659  0.445067  1.0
  H  H10  1  0.420521  0.305378  0.584550  1.0
  H  H11  1  0.423105  0.595940  0.236227  1.0
  H  H12  1  0.557045  0.572265  0.808238  1.0
  H  H13  1  0.570226  0.613602  0.073797  1.0
  H  H14  1  0.633137  0.954163  0.668070  1.0
  H  H15  1  0.758483  0.464390  0.719371  1.0
  H  H16  1  0.832270  0.249107  0.540700  1.0
  H  H17  1  0.847585  0.605154  0.460059  1.0
  H  H18  1  0.854417  0.816834  0.658861  1.0
