# generated using pymatgen
data_BaH15
_symmetry_space_group_name_H-M   P-1
_cell_length_a   2.98235538
_cell_length_b   3.68252466
_cell_length_c   4.35220960
_cell_angle_alpha   91.65352504
_cell_angle_beta   93.71309288
_cell_angle_gamma   95.39516463
_symmetry_Int_Tables_number   2
_chemical_formula_structural   BaH15
_chemical_formula_sum   'Ba1 H15'
_cell_volume   47.45753638
_cell_formula_units_Z   1
loop_
 _symmetry_equiv_pos_site_id
 _symmetry_equiv_pos_as_xyz
  1  'x, y, z'
  2  '-x, -y, -z'
loop_
 _atom_site_type_symbol
 _atom_site_label
 _atom_site_symmetry_multiplicity
 _atom_site_fract_x
 _atom_site_fract_y
 _atom_site_fract_z
 _atom_site_occupancy
  Ba  Ba0  1  0.000000  0.000000  0.500000  1.0
  H  H1  2  0.036341  0.518715  0.792325  1.0
  H  H2  2  0.243364  0.418541  0.862993  1.0
  H  H3  2  0.246565  0.847708  0.047294  1.0
  H  H4  2  0.316900  0.326816  0.147236  1.0
  H  H5  2  0.425591  0.542219  0.434804  1.0
  H  H6  2  0.428749  0.738327  0.179489  1.0
  H  H7  2  0.499508  0.193127  0.188217  1.0
  H  H8  1  0.000000  0.000000  0.000000  1.0
