# generated using pymatgen
data_BaH17
_symmetry_space_group_name_H-M   C2/m
_cell_length_a   8.20890766
_cell_length_b   2.97493178
_cell_length_c   4.45379993
_cell_angle_alpha   90.00000000
_cell_angle_beta   104.64760045
_cell_angle_gamma   90.00000000
_symmetry_Int_Tables_number   12
_chemical_formula_structural   BaH17
_chemical_formula_sum   'Ba2 H34'
_cell_volume   105.23102489
_cell_formula_units_Z   2
loop_
 _symmetry_equiv_pos_site_id
 _symmetry_equiv_pos_as_xyz
  1  'x, y, z'
  2  '-x, -y, -z'
  3  '-x, y, -z'
  4  'x, -y, z'
  5  'x+1/2, y+1/2, z'
  6  '-x+1/2, -y+1/2, -z'
  7  '-x+1/2, y+1/2, -z'
  8  'x+1/2, -y+1/2, z'
loop_
 _atom_site_type_symbol
 _atom_site_label
 _atom_site_symmetry_multiplicity
 _atom_site_fract_x
 _atom_site_fract_y
 _atom_site_fract_z
 _atom_site_occupancy
  Ba  Ba0  2  0.000000  0.500000  0.000000  1.0
  H  H1  4  0.036918  0.000000  0.378605  1.0
  H  H2  4  0.116717  0.500000  0.570201  1.0
  H  H3  4  0.120774  0.000000  0.747475  1.0
  H  H4  4  0.131942  0.000000  0.363408  1.0
  H  H5  4  0.208403  0.500000  0.442403  1.0
  H  H6  4  0.212822  0.000000  0.019671  1.0
  H  H7  4  0.221454  0.000000  0.680022  1.0
  H  H8  4  0.240269  0.500000  0.800311  1.0
  H  H9  2  0.000000  0.500000  0.500000  1.0
