# generated using pymatgen
data_BaH11
_symmetry_space_group_name_H-M   Cm
_cell_length_a   7.34763405
_cell_length_b   3.01578677
_cell_length_c   4.29829991
_cell_angle_alpha   90.00000000
_cell_angle_beta   123.92191042
_cell_angle_gamma   90.00000000
_symmetry_Int_Tables_number   8
_chemical_formula_structural   BaH11
_chemical_formula_sum   'Ba2 H22'
_cell_volume   79.03468706
_cell_formula_units_Z   2
loop_
 _symmetry_equiv_pos_site_id
 _symmetry_equiv_pos_as_xyz
  1  'x, y, z'
  2  'x, -y, z'
  3  'x+1/2, y+1/2, z'
  4  'x+1/2, -y+1/2, z'
loop_
 _atom_site_type_symbol
 _atom_site_label
 _atom_site_symmetry_multiplicity
 _atom_site_fract_x
 _atom_site_fract_y
 _atom_site_fract_z
 _atom_site_occupancy
  Ba  Ba0  2  0.456599  0.000000  0.646426  1.0
  H  H1  2  0.072161  0.000000  0.167076  1.0
  H  H2  2  0.083628  0.000000  0.439893  1.0
  H  H3  2  0.132688  0.500000  0.309581  1.0
  H  H4  2  0.149331  0.000000  0.088028  1.0
  H  H5  2  0.196778  0.000000  0.739550  1.0
  H  H6  2  0.253741  0.500000  0.665378  1.0
  H  H7  2  0.261446  0.500000  0.210790  1.0
  H  H8  2  0.296701  0.000000  0.984739  1.0
  H  H9  2  0.340964  0.500000  0.896366  1.0
  H  H10  2  0.382339  0.500000  0.205792  1.0
  H  H11  2  0.487546  0.000000  0.176663  1.0
