# generated using pymatgen
data_BaH18
_symmetry_space_group_name_H-M   C2/m
_cell_length_a   3.36880755
_cell_length_b   7.42123746
_cell_length_c   4.44058921
_cell_angle_alpha   90.00000000
_cell_angle_beta   98.01566639
_cell_angle_gamma   90.00000000
_symmetry_Int_Tables_number   12
_chemical_formula_structural   BaH18
_chemical_formula_sum   'Ba2 H36'
_cell_volume   109.93328328
_cell_formula_units_Z   2
loop_
 _symmetry_equiv_pos_site_id
 _symmetry_equiv_pos_as_xyz
  1  'x, y, z'
  2  '-x, -y, -z'
  3  '-x, y, -z'
  4  'x, -y, z'
  5  'x+1/2, y+1/2, z'
  6  '-x+1/2, -y+1/2, -z'
  7  '-x+1/2, y+1/2, -z'
  8  'x+1/2, -y+1/2, z'
loop_
 _atom_site_type_symbol
 _atom_site_label
 _atom_site_symmetry_multiplicity
 _atom_site_fract_x
 _atom_site_fract_y
 _atom_site_fract_z
 _atom_site_occupancy
  Ba  Ba0  2  0.000000  0.500000  0.000000  1.0
  H  H1  8  0.018429  0.195809  0.087488  1.0
  H  H2  8  0.047007  0.056332  0.337105  1.0
  H  H3  8  0.163966  0.302346  0.652513  1.0
  H  H4  8  0.166824  0.191939  0.645427  1.0
  H  H5  4  0.000000  0.444083  0.500000  1.0
