# generated using pymatgen
data_BaH18
_symmetry_space_group_name_H-M   P-1
_cell_length_a   3.68305945
_cell_length_b   4.29171453
_cell_length_c   4.31724060
_cell_angle_alpha   115.67690330
_cell_angle_beta   105.87407967
_cell_angle_gamma   99.37395627
_symmetry_Int_Tables_number   2
_chemical_formula_structural   BaH18
_chemical_formula_sum   'Ba1 H18'
_cell_volume   55.95362884
_cell_formula_units_Z   1
loop_
 _symmetry_equiv_pos_site_id
 _symmetry_equiv_pos_as_xyz
  1  'x, y, z'
  2  '-x, -y, -z'
loop_
 _atom_site_type_symbol
 _atom_site_label
 _atom_site_symmetry_multiplicity
 _atom_site_fract_x
 _atom_site_fract_y
 _atom_site_fract_z
 _atom_site_occupancy
  Ba  Ba0  1  0.000000  0.000000  0.500000  1.0
  H  H1  2  0.095591  0.275518  0.174639  1.0
  H  H2  2  0.110763  0.544847  0.059937  1.0
  H  H3  2  0.204940  0.606848  0.686571  1.0
  H  H4  2  0.240751  0.178140  0.122954  1.0
  H  H5  2  0.358261  0.630733  0.540267  1.0
  H  H6  2  0.362086  0.836412  0.993158  1.0
  H  H7  2  0.397235  0.932078  0.207921  1.0
  H  H8  2  0.429960  0.687165  0.393473  1.0
  H  H9  2  0.495234  0.480137  0.080931  1.0
