# generated using pymatgen
data_Ba16H
_symmetry_space_group_name_H-M   C2/m
_cell_length_a   13.96307162
_cell_length_b   5.95715243
_cell_length_c   6.95495691
_cell_angle_alpha   90.00000000
_cell_angle_beta   93.08698585
_cell_angle_gamma   90.00000000
_symmetry_Int_Tables_number   12
_chemical_formula_structural   Ba16H
_chemical_formula_sum   'Ba32 H2'
_cell_volume   577.67486605
_cell_formula_units_Z   2
loop_
 _symmetry_equiv_pos_site_id
 _symmetry_equiv_pos_as_xyz
  1  'x, y, z'
  2  '-x, -y, -z'
  3  '-x, y, -z'
  4  'x, -y, z'
  5  'x+1/2, y+1/2, z'
  6  '-x+1/2, -y+1/2, -z'
  7  '-x+1/2, y+1/2, -z'
  8  'x+1/2, -y+1/2, z'
loop_
 _atom_site_type_symbol
 _atom_site_label
 _atom_site_symmetry_multiplicity
 _atom_site_fract_x
 _atom_site_fract_y
 _atom_site_fract_z
 _atom_site_occupancy
  Ba  Ba0  8  0.020498  0.253175  0.714617  1.0
  Ba  Ba1  8  0.229240  0.248557  0.790870  1.0
  Ba  Ba2  4  0.105227  0.000000  0.043546  1.0
  Ba  Ba3  4  0.105994  0.500000  0.041075  1.0
  Ba  Ba4  4  0.142819  0.500000  0.459017  1.0
  Ba  Ba5  4  0.149515  0.000000  0.458320  1.0
  H  H6  2  0.000000  0.000000  0.500000  1.0
