# generated using pymatgen
data_MgSiO3
_symmetry_space_group_name_H-M   'P 1'
_cell_length_a   4.78770000
_cell_length_b   4.94800000
_cell_length_c   6.91510000
_cell_angle_alpha   90.00000000
_cell_angle_beta   90.00000000
_cell_angle_gamma   90.00000000
_symmetry_Int_Tables_number   1
_chemical_formula_structural   MgSiO3
_chemical_formula_sum   'Mg4 Si4 O12'
_cell_volume   163.81553529
_cell_formula_units_Z   4
loop_
 _symmetry_equiv_pos_site_id
 _symmetry_equiv_pos_as_xyz
  1  'x, y, z'
loop_
 _atom_site_type_symbol
 _atom_site_label
 _atom_site_symmetry_multiplicity
 _atom_site_fract_x
 _atom_site_fract_y
 _atom_site_fract_z
 _atom_site_occupancy
  Mg  Mg0  1  0.74999900  0.45915500  0.00000000  1
  Mg  Mg1  1  0.25000100  0.45915500  0.00000000  1
  Mg  Mg2  1  0.00000000  0.95915500  0.00000000  1
  Mg  Mg3  1  0.50000000  0.95915500  0.00000000  1
  O  O4  1  0.87617900  0.70866800  0.00000000  1
  O  O5  1  0.37617900  0.70866800  0.00000000  1
  O  O6  1  0.62382100  0.70866800  0.00000000  1
  O  O7  1  0.12382100  0.70866800  0.00000000  1
  O  O8  1  0.37382500  0.20866800  0.00000000  1
  O  O9  1  0.87382500  0.20866800  0.00000000  1
  O  O10  1  0.25000100  0.71313700  0.50000000  1
  O  O11  1  0.00000000  0.21313700  0.50000000  1
  O  O12  1  0.62617500  0.20866800  0.00000000  1
  O  O13  1  0.50000000  0.21313700  0.50000000  1
  O  O14  1  0.74999900  0.71313700  0.50000000  1
  O  O15  1  0.12617500  0.20866800  0.00000000  1
  Si  Si16  1  0.50000000  0.91037800  0.50000000  1
  Si  Si17  1  0.00000000  0.91037800  0.50000000  1
  Si  Si18  1  0.25000100  0.41037800  0.50000000  1
  Si  Si19  1  0.74999900  0.41037800  0.50000000  1
