# generated using pymatgen
data_BaH9
_symmetry_space_group_name_H-M   Cm
_cell_length_a   7.47486091
_cell_length_b   2.99025519
_cell_length_c   6.61802482
_cell_angle_alpha   90.00000000
_cell_angle_beta   100.68469888
_cell_angle_gamma   90.00000000
_symmetry_Int_Tables_number   8
_chemical_formula_structural   BaH9
_chemical_formula_sum   'Ba4 H36'
_cell_volume   145.35971903
_cell_formula_units_Z   4
loop_
 _symmetry_equiv_pos_site_id
 _symmetry_equiv_pos_as_xyz
  1  'x, y, z'
  2  'x, -y, z'
  3  'x+1/2, y+1/2, z'
  4  'x+1/2, -y+1/2, z'
loop_
 _atom_site_type_symbol
 _atom_site_label
 _atom_site_symmetry_multiplicity
 _atom_site_fract_x
 _atom_site_fract_y
 _atom_site_fract_z
 _atom_site_occupancy
  Ba  Ba0  2  0.31225800  0.00000000  0.18257100  1.0
  Ba  Ba1  2  0.39732750  0.00000000  0.74785800  1.0
  H  H2  4  0.19838250  0.11406950  0.46242500  1.0
  H  H3  2  0.01021350  0.50000000  0.48266800  1.0
  H  H4  2  0.01394300  0.00000000  0.02333800  1.0
  H  H5  2  0.01413100  0.00000000  0.33363200  1.0
  H  H6  2  0.02485500  0.00000000  0.14969500  1.0
  H  H7  2  0.05198300  0.00000000  0.58369200  1.0
  H  H8  2  0.08085500  0.50000000  0.38248400  1.0
  H  H9  2  0.09180750  0.50000000  0.06347800  1.0
  H  H10  2  0.09570850  0.00000000  0.70356400  1.0
  H  H11  2  0.11253200  0.50000000  0.26053400  1.0
  H  H12  2  0.12691500  0.00000000  0.88279800  1.0
  H  H13  2  0.15786850  0.50000000  0.97591700  1.0
  H  H14  2  0.16820850  0.50000000  0.62913700  1.0
  H  H15  2  0.18476050  0.50000000  0.75356600  1.0
  H  H16  2  0.30487600  0.50000000  0.47578100  1.0
  H  H17  2  0.30577950  0.50000000  0.93890500  1.0
  H  H18  2  0.43658900  0.50000000  0.41759400  1.0
