# generated using pymatgen
data_Ba2H21
_symmetry_space_group_name_H-M   P-1
_cell_length_a   3.74942305
_cell_length_b   4.53935493
_cell_length_c   5.35319577
_cell_angle_alpha   94.25240138
_cell_angle_beta   109.44836520
_cell_angle_gamma   111.55832344
_symmetry_Int_Tables_number   2
_chemical_formula_structural   Ba2H21
_chemical_formula_sum   'Ba2 H21'
_cell_volume   77.87098648
_cell_formula_units_Z   1
loop_
 _symmetry_equiv_pos_site_id
 _symmetry_equiv_pos_as_xyz
  1  'x, y, z'
  2  '-x, -y, -z'
loop_
 _atom_site_type_symbol
 _atom_site_label
 _atom_site_symmetry_multiplicity
 _atom_site_fract_x
 _atom_site_fract_y
 _atom_site_fract_z
 _atom_site_occupancy
  Ba  Ba0  2  0.43608400  0.16934200  0.26645400  1.0
  H  H1  2  0.00292100  0.91287900  0.48790800  1.0
  H  H2  2  0.01904400  0.68448000  0.28578500  1.0
  H  H3  2  0.07850400  0.47210500  0.34726800  1.0
  H  H4  2  0.09866300  0.69615200  0.95425200  1.0
  H  H5  2  0.12789600  0.36244400  0.46143000  1.0
  H  H6  2  0.17970000  0.22923600  0.82796900  1.0
  H  H7  2  0.22174100  0.05141000  0.84107300  1.0
  H  H8  2  0.25921100  0.59314000  0.99797500  1.0
  H  H9  2  0.35616100  0.65602600  0.26569500  1.0
  H  H10  2  0.40461500  0.30748200  0.65784200  1.0
  H  H11  1  0.50000000  0.50000000  0.00000000  1.0
