# generated using pymatgen
data_BaH12
_symmetry_space_group_name_H-M   P1
_cell_length_a   3.62814647
_cell_length_b   3.67498096
_cell_length_c   3.74790371
_cell_angle_alpha   71.16499876
_cell_angle_beta   69.89039354
_cell_angle_gamma   67.51151475
_symmetry_Int_Tables_number   1
_chemical_formula_structural   BaH12
_chemical_formula_sum   'Ba1 H12'
_cell_volume   42.28990320
_cell_formula_units_Z   1
loop_
 _symmetry_equiv_pos_site_id
 _symmetry_equiv_pos_as_xyz
  1  'x, y, z'
loop_
 _atom_site_type_symbol
 _atom_site_label
 _atom_site_symmetry_multiplicity
 _atom_site_fract_x
 _atom_site_fract_y
 _atom_site_fract_z
 _atom_site_occupancy
  Ba  Ba0  1  0.25983400  0.15553500  0.55437900  1.0
  H  H1  1  0.17526200  0.54251600  0.94104700  1.0
  H  H2  1  0.31313800  0.63678300  0.03762700  1.0
  H  H3  1  0.39824000  0.75407400  0.15711600  1.0
  H  H4  1  0.59570000  0.50004600  0.65417400  1.0
  H  H5  1  0.59934900  0.22090300  0.91330500  1.0
  H  H6  1  0.65686300  0.57318100  0.41125100  1.0
  H  H7  1  0.66912200  0.97813200  0.98331600  1.0
  H  H8  1  0.83680600  0.37975000  0.10774000  1.0
  H  H9  1  0.83808000  0.71279400  0.76365600  1.0
  H  H10  1  0.86779600  0.78717200  0.23890300  1.0
  H  H11  1  0.90175400  0.14111500  0.18509000  1.0
  H  H12  1  0.90561700  0.79348700  0.51255000  1.0
