# generated using pymatgen
data_Ba2H15
_symmetry_space_group_name_H-M   P1
_cell_length_a   3.40616627
_cell_length_b   3.83915501
_cell_length_c   5.73089030
_cell_angle_alpha   100.24682526
_cell_angle_beta   95.70213431
_cell_angle_gamma   114.32642414
_symmetry_Int_Tables_number   1
_chemical_formula_structural   Ba2H15
_chemical_formula_sum   'Ba2 H15'
_cell_volume   65.94155352
_cell_formula_units_Z   1
loop_
 _symmetry_equiv_pos_site_id
 _symmetry_equiv_pos_as_xyz
  1  'x, y, z'
loop_
 _atom_site_type_symbol
 _atom_site_label
 _atom_site_symmetry_multiplicity
 _atom_site_fract_x
 _atom_site_fract_y
 _atom_site_fract_z
 _atom_site_occupancy
  Ba  Ba0  1  0.17122500  0.91118500  0.06688600  1.0
  Ba  Ba1  1  0.88412000  0.60151800  0.52374100  1.0
  H  H2  1  0.03051600  0.26812300  0.80513400  1.0
  H  H3  1  0.12985600  0.23426000  0.67026500  1.0
  H  H4  1  0.19307200  0.20487800  0.47610900  1.0
  H  H5  1  0.28468100  0.48904900  0.28979900  1.0
  H  H6  1  0.47472700  0.55295700  0.17257600  1.0
  H  H7  1  0.48301700  0.50296200  0.00490500  1.0
  H  H8  1  0.49520700  0.14367300  0.72666200  1.0
  H  H9  1  0.49835700  0.65234300  0.81366700  1.0
  H  H10  1  0.56210500  0.00336800  0.57391200  1.0
  H  H11  1  0.57148300  0.86638600  0.78111500  1.0
  H  H12  1  0.57591500  0.95327600  0.40683300  1.0
  H  H13  1  0.58818200  0.36502800  0.84725900  1.0
  H  H14  1  0.77778800  0.03199000  0.30011500  1.0
  H  H15  1  0.85341900  0.27449600  0.98913800  1.0
  H  H16  1  0.87492900  0.30860400  0.14211100  1.0
