# generated using pymatgen
data_Ba2H19
_symmetry_space_group_name_H-M   P-1
_cell_length_a   3.25920857
_cell_length_b   3.78655141
_cell_length_c   6.96591561
_cell_angle_alpha   84.47100147
_cell_angle_beta   81.82201570
_cell_angle_gamma   67.46094073
_symmetry_Int_Tables_number   2
_chemical_formula_structural   Ba2H19
_chemical_formula_sum   'Ba2 H19'
_cell_volume   78.51143489
_cell_formula_units_Z   1
loop_
 _symmetry_equiv_pos_site_id
 _symmetry_equiv_pos_as_xyz
  1  'x, y, z'
  2  '-x, -y, -z'
loop_
 _atom_site_type_symbol
 _atom_site_label
 _atom_site_symmetry_multiplicity
 _atom_site_fract_x
 _atom_site_fract_y
 _atom_site_fract_z
 _atom_site_occupancy
  Ba  Ba0  2  0.26947000  0.80091200  0.79627700  1.0
  H  H1  2  0.00457800  0.09998100  0.49670800  1.0
  H  H2  2  0.02000900  0.58085000  0.31074000  1.0
  H  H3  2  0.04883400  0.44933500  0.40908200  1.0
  H  H4  2  0.08417400  0.60304500  0.10322700  1.0
  H  H5  2  0.26721100  0.27745200  0.96218700  1.0
  H  H6  2  0.38692300  0.80062600  0.27642800  1.0
  H  H7  2  0.40393900  0.10080400  0.49878700  1.0
  H  H8  2  0.42504200  0.70874700  0.38858600  1.0
  H  H9  2  0.44553000  0.81703400  0.08415600  1.0
  H  H10  1  0.50000000  0.50000000  0.50000000  1.0
