# generated using pymatgen
data_Ba2H21
_symmetry_space_group_name_H-M   P-1
_cell_length_a   3.71963656
_cell_length_b   3.72790348
_cell_length_c   6.43260271
_cell_angle_alpha   80.27972679
_cell_angle_beta   79.09621489
_cell_angle_gamma   64.59008194
_symmetry_Int_Tables_number   2
_chemical_formula_structural   Ba2H21
_chemical_formula_sum   'Ba2 H21'
_cell_volume   78.72647970
_cell_formula_units_Z   1
loop_
 _symmetry_equiv_pos_site_id
 _symmetry_equiv_pos_as_xyz
  1  'x, y, z'
  2  '-x, -y, -z'
loop_
 _atom_site_type_symbol
 _atom_site_label
 _atom_site_symmetry_multiplicity
 _atom_site_fract_x
 _atom_site_fract_y
 _atom_site_fract_z
 _atom_site_occupancy
  Ba  Ba0  2  0.06636700  0.07407100  0.76337050  1.0
  H  H1  2  0.05033500  0.30316000  0.42090150  1.0
  H  H2  2  0.09388800  0.51002200  0.95971450  1.0
  H  H3  2  0.19510400  0.56211500  0.53255350  1.0
  H  H4  2  0.28605600  0.26576900  0.24964250  1.0
  H  H5  2  0.34967400  0.96436800  0.42625550  1.0
  H  H6  2  0.36205900  0.35319200  0.12890750  1.0
  H  H7  2  0.40676600  0.40904900  0.79332450  1.0
  H  H8  2  0.48423800  0.49432100  0.66708550  1.0
  H  H9  2  0.49512400  0.25639100  0.49966950  1.0
  H  H10  2  0.49605900  0.09890100  0.96106950  1.0
  H  H11  1  0.50000000  0.50000000  0.00000000  1.0
