# generated using pymatgen
data_BaH6
_symmetry_space_group_name_H-M   Cm
_cell_length_a   4.15154344
_cell_length_b   4.56531540
_cell_length_c   6.45738557
_cell_angle_alpha   90.00000000
_cell_angle_beta   90.97791957
_cell_angle_gamma   90.00000000
_symmetry_Int_Tables_number   8
_chemical_formula_structural   BaH6
_chemical_formula_sum   'Ba4 H24'
_cell_volume   122.36968173
_cell_formula_units_Z   4
loop_
 _symmetry_equiv_pos_site_id
 _symmetry_equiv_pos_as_xyz
  1  'x, y, z'
  2  'x, -y, z'
  3  'x+1/2, y+1/2, z'
  4  'x+1/2, -y+1/2, z'
loop_
 _atom_site_type_symbol
 _atom_site_label
 _atom_site_symmetry_multiplicity
 _atom_site_fract_x
 _atom_site_fract_y
 _atom_site_fract_z
 _atom_site_occupancy
  Ba  Ba0  2  0.23641950  0.50000000  0.57492500  1.0
  Ba  Ba1  2  0.25534900  0.00000000  0.05028200  1.0
  H  H2  4  0.01954850  0.22424450  0.30798300  1.0
  H  H3  4  0.22629250  0.09569150  0.72762900  1.0
  H  H4  4  0.36881800  0.17196600  0.35333200  1.0
  H  H5  4  0.49245150  0.25385450  0.81476300  1.0
  H  H6  2  0.22427750  0.00000000  0.43060000  1.0
  H  H7  2  0.25349550  0.50000000  0.21953400  1.0
  H  H8  2  0.25450200  0.50000000  0.08254100  1.0
  H  H9  2  0.25486250  0.50000000  0.91380400  1.0
