# generated using pymatgen
data_BaH6
_symmetry_space_group_name_H-M   P-1
_cell_length_a   3.02839997
_cell_length_b   3.85299602
_cell_length_c   5.73400950
_cell_angle_alpha   94.23229033
_cell_angle_beta   100.65720267
_cell_angle_gamma   111.53682555
_symmetry_Int_Tables_number   2
_chemical_formula_structural   BaH6
_chemical_formula_sum   'Ba2 H12'
_cell_volume   60.42284392
_cell_formula_units_Z   2
loop_
 _symmetry_equiv_pos_site_id
 _symmetry_equiv_pos_as_xyz
  1  'x, y, z'
  2  '-x, -y, -z'
loop_
 _atom_site_type_symbol
 _atom_site_label
 _atom_site_symmetry_multiplicity
 _atom_site_fract_x
 _atom_site_fract_y
 _atom_site_fract_z
 _atom_site_occupancy
  Ba  Ba0  2  0.20647950  0.74125800  0.74994600  1.0
  H  H1  2  0.04661150  0.81253500  0.09230000  1.0
  H  H2  2  0.12240950  0.87655500  0.38077100  1.0
  H  H3  2  0.27691350  0.28183700  0.92624200  1.0
  H  H4  2  0.37427550  0.79745100  0.40152700  1.0
  H  H5  2  0.38249250  0.30287500  0.56051200  1.0
  H  H6  2  0.40094850  0.64432600  0.12105000  1.0
