# generated using pymatgen
data_BaH14
_symmetry_space_group_name_H-M   Imm2
_cell_length_a   3.81318399
_cell_length_b   6.83846682
_cell_length_c   3.53055774
_cell_angle_alpha   90.00000000
_cell_angle_beta   90.00000000
_cell_angle_gamma   90.00000000
_symmetry_Int_Tables_number   44
_chemical_formula_structural   BaH14
_chemical_formula_sum   'Ba2 H28'
_cell_volume   92.06399644
_cell_formula_units_Z   2
loop_
 _symmetry_equiv_pos_site_id
 _symmetry_equiv_pos_as_xyz
  1  'x, y, z'
  2  '-x, -y, z'
  3  '-x, y, z'
  4  'x, -y, z'
  5  'x+1/2, y+1/2, z+1/2'
  6  '-x+1/2, -y+1/2, z+1/2'
  7  '-x+1/2, y+1/2, z+1/2'
  8  'x+1/2, -y+1/2, z+1/2'
loop_
 _atom_site_type_symbol
 _atom_site_label
 _atom_site_symmetry_multiplicity
 _atom_site_fract_x
 _atom_site_fract_y
 _atom_site_fract_z
 _atom_site_occupancy
  Ba  Ba0  2  0.00000000  0.50000000  0.00624100  1.0
  H  H1  8  0.19857450  0.20604350  0.83980750  1.0
  H  H2  8  0.24845650  0.18535150  0.06155450  1.0
  H  H3  4  0.00000000  0.12896700  0.32244000  1.0
  H  H4  4  0.00000000  0.13749100  0.56022400  1.0
  H  H5  2  0.00000000  0.00000000  0.05966600  1.0
  H  H6  2  0.00000000  0.00000000  0.83147150  1.0
