# generated using pymatgen
data_BaH10
_symmetry_space_group_name_H-M   C2/m
_cell_length_a   8.38701583
_cell_length_b   3.91229209
_cell_length_c   5.65151415
_cell_angle_alpha   90.00000000
_cell_angle_beta   121.74439585
_cell_angle_gamma   90.00000000
_symmetry_Int_Tables_number   12
_chemical_formula_structural   BaH10
_chemical_formula_sum   'Ba4 H40'
_cell_volume   157.69890933
_cell_formula_units_Z   4
loop_
 _symmetry_equiv_pos_site_id
 _symmetry_equiv_pos_as_xyz
  1  'x, y, z'
  2  '-x, -y, -z'
  3  '-x, y, -z'
  4  'x, -y, z'
  5  'x+1/2, y+1/2, z'
  6  '-x+1/2, -y+1/2, -z'
  7  '-x+1/2, y+1/2, -z'
  8  'x+1/2, -y+1/2, z'
loop_
 _atom_site_type_symbol
 _atom_site_label
 _atom_site_symmetry_multiplicity
 _atom_site_fract_x
 _atom_site_fract_y
 _atom_site_fract_z
 _atom_site_occupancy
  Ba  Ba0  4  0.19818450  0.00000000  0.24528900  1.0
  H  H1  8  0.01005100  0.29913550  0.66588400  1.0
  H  H2  8  0.07545050  0.20744900  0.81987200  1.0
  H  H3  4  0.03840300  0.50000000  0.10043600  1.0
  H  H4  4  0.12578600  0.00000000  0.56439000  1.0
  H  H5  4  0.12965350  0.50000000  0.30605600  1.0
  H  H6  4  0.18309800  0.50000000  0.02365400  1.0
  H  H7  4  0.21953150  0.00000000  0.83272800  1.0
  H  H8  2  0.00000000  0.00000000  0.50000000  1.0
  H  H9  2  0.00000000  0.50000000  0.50000000  1.0
