# generated using pymatgen
data_BaH16
_symmetry_space_group_name_H-M   P-1
_cell_length_a   3.51521837
_cell_length_b   3.77049032
_cell_length_c   4.39934863
_cell_angle_alpha   107.73168204
_cell_angle_beta   97.91171332
_cell_angle_gamma   110.38748834
_symmetry_Int_Tables_number   2
_chemical_formula_structural   BaH16
_chemical_formula_sum   'Ba1 H16'
_cell_volume   50.08259078
_cell_formula_units_Z   1
loop_
 _symmetry_equiv_pos_site_id
 _symmetry_equiv_pos_as_xyz
  1  'x, y, z'
  2  '-x, -y, -z'
loop_
 _atom_site_type_symbol
 _atom_site_label
 _atom_site_symmetry_multiplicity
 _atom_site_fract_x
 _atom_site_fract_y
 _atom_site_fract_z
 _atom_site_occupancy
  Ba  Ba0  1  0.50000000  0.50000000  0.00000000  1.0
  H  H1  2  0.02113000  0.46621600  0.33939700  1.0
  H  H2  2  0.06152200  0.06299600  0.44408400  1.0
  H  H3  2  0.13238100  0.68181800  0.32385200  1.0
  H  H4  2  0.15904000  0.87788400  0.96545200  1.0
  H  H5  2  0.16852300  0.94230300  0.16040200  1.0
  H  H6  2  0.30447800  0.85433800  0.72065700  1.0
  H  H7  2  0.38794500  0.40247900  0.46855300  1.0
  H  H8  2  0.45344400  0.93444700  0.59416500  1.0
