# generated using pymatgen
data_BaH6
_symmetry_space_group_name_H-M   P-1
_cell_length_a   3.02839997
_cell_length_b   3.85299602
_cell_length_c   5.73400950
_cell_angle_alpha   94.23229033
_cell_angle_beta   100.65720267
_cell_angle_gamma   111.53682555
_symmetry_Int_Tables_number   2
_chemical_formula_structural   BaH6
_chemical_formula_sum   'Ba2 H12'
_cell_volume   60.42284392
_cell_formula_units_Z   2
loop_
 _symmetry_equiv_pos_site_id
 _symmetry_equiv_pos_as_xyz
  1  'x, y, z'
  2  '-x, -y, -z'
loop_
 _atom_site_type_symbol
 _atom_site_label
 _atom_site_symmetry_multiplicity
 _atom_site_fract_x
 _atom_site_fract_y
 _atom_site_fract_z
 _atom_site_occupancy
  Ba  Ba0  2  0.206479  0.741258  0.749946  1.0
  H  H1  2  0.046612  0.812535  0.092300  1.0
  H  H2  2  0.122409  0.876555  0.380771  1.0
  H  H3  2  0.276914  0.281837  0.926242  1.0
  H  H4  2  0.374275  0.797451  0.401527  1.0
  H  H5  2  0.382492  0.302875  0.560512  1.0
  H  H6  2  0.400948  0.644326  0.121050  1.0
