# generated using pymatgen
data_Ba2H21
_symmetry_space_group_name_H-M   Pm
_cell_length_a   3.97853720
_cell_length_b   3.95710563
_cell_length_c   5.19758418
_cell_angle_alpha   90.00000000
_cell_angle_beta   97.60711463
_cell_angle_gamma   90.00000000
_symmetry_Int_Tables_number   6
_chemical_formula_structural   Ba2H21
_chemical_formula_sum   'Ba2 H21'
_cell_volume   81.10796438
_cell_formula_units_Z   1
loop_
 _symmetry_equiv_pos_site_id
 _symmetry_equiv_pos_as_xyz
  1  'x, y, z'
  2  'x, -y, z'
loop_
 _atom_site_type_symbol
 _atom_site_label
 _atom_site_symmetry_multiplicity
 _atom_site_fract_x
 _atom_site_fract_y
 _atom_site_fract_z
 _atom_site_occupancy
  Ba  Ba0  1  0.05027100  0.00000000  0.88043700  1.0
  Ba  Ba1  1  0.50500100  0.50000000  0.30588900  1.0
  H  H2  2  0.03633200  0.28230200  0.43180900  1.0
  H  H3  2  0.22216900  0.26600300  0.57749600  1.0
  H  H4  2  0.51676300  0.19166200  0.71921100  1.0
  H  H5  2  0.56150800  0.23788400  0.88003800  1.0
  H  H6  2  0.99677400  0.26483700  0.25544300  1.0
  H  H7  1  0.25060300  0.50000000  0.73880600  1.0
  H  H8  1  0.26855000  0.00000000  0.29916100  1.0
  H  H9  1  0.28589500  0.50000000  0.89842600  1.0
  H  H10  1  0.33947500  0.00000000  0.45329900  1.0
  H  H11  1  0.62965800  0.00000000  0.12299600  1.0
  H  H12  1  0.73783500  0.00000000  0.48954200  1.0
  H  H13  1  0.73947600  0.00000000  0.32007900  1.0
  H  H14  1  0.77268000  0.50000000  0.72938700  1.0
  H  H15  1  0.77405600  0.50000000  0.96444000  1.0
  H  H16  1  0.90797000  0.50000000  0.63793200  1.0
  H  H17  1  0.94563400  0.50000000  0.08364400  1.0
