# generated using pymatgen
data_Ba2H17
_symmetry_space_group_name_H-M   P1
_cell_length_a   3.70890696
_cell_length_b   3.93548627
_cell_length_c   5.79170533
_cell_angle_alpha   79.99357030
_cell_angle_beta   84.84393660
_cell_angle_gamma   62.73325520
_symmetry_Int_Tables_number   1
_chemical_formula_structural   Ba2H17
_chemical_formula_sum   'Ba2 H17'
_cell_volume   73.99605136
_cell_formula_units_Z   1
loop_
 _symmetry_equiv_pos_site_id
 _symmetry_equiv_pos_as_xyz
  1  'x, y, z'
loop_
 _atom_site_type_symbol
 _atom_site_label
 _atom_site_symmetry_multiplicity
 _atom_site_fract_x
 _atom_site_fract_y
 _atom_site_fract_z
 _atom_site_occupancy
  Ba  Ba0  1  0.15426200  0.29801700  0.14693200  1.0
  Ba  Ba1  1  0.63579300  0.69987900  0.57068800  1.0
  H  H2  1  0.11783600  0.14167300  0.80664300  1.0
  H  H3  1  0.13229800  0.75014900  0.36076400  1.0
  H  H4  1  0.13822100  0.80482400  0.86145100  1.0
  H  H5  1  0.14167300  0.62107200  0.80172900  1.0
  H  H6  1  0.28088800  0.30507200  0.66338500  1.0
  H  H7  1  0.33207900  0.34947700  0.51367600  1.0
  H  H8  1  0.40127000  0.65585300  0.24441000  1.0
  H  H9  1  0.48934900  0.69693900  0.10361900  1.0
  H  H10  1  0.60011600  0.51528900  0.94571400  1.0
  H  H11  1  0.61834600  0.87108800  0.91295200  1.0
  H  H12  1  0.63281200  0.07117400  0.83082200  1.0
  H  H13  1  0.64758700  0.24286800  0.35835500  1.0
  H  H14  1  0.68110000  0.30395100  0.89679800  1.0
  H  H15  1  0.83763600  0.93591600  0.20090800  1.0
  H  H16  1  0.88371600  0.93594800  0.05961600  1.0
  H  H17  1  0.94451000  0.07202000  0.50498700  1.0
  H  H18  1  0.96410000  0.06983800  0.64587100  1.0
