# generated using pymatgen
data_BaH13
_symmetry_space_group_name_H-M   Imm2
_cell_length_a   3.89737823
_cell_length_b   5.75903758
_cell_length_c   3.94306576
_cell_angle_alpha   90.00000000
_cell_angle_beta   90.00000000
_cell_angle_gamma   90.00000000
_symmetry_Int_Tables_number   44
_chemical_formula_structural   BaH13
_chemical_formula_sum   'Ba2 H26'
_cell_volume   88.50269318
_cell_formula_units_Z   2
loop_
 _symmetry_equiv_pos_site_id
 _symmetry_equiv_pos_as_xyz
  1  'x, y, z'
  2  '-x, -y, z'
  3  '-x, y, z'
  4  'x, -y, z'
  5  'x+1/2, y+1/2, z+1/2'
  6  '-x+1/2, -y+1/2, z+1/2'
  7  '-x+1/2, y+1/2, z+1/2'
  8  'x+1/2, -y+1/2, z+1/2'
loop_
 _atom_site_type_symbol
 _atom_site_label
 _atom_site_symmetry_multiplicity
 _atom_site_fract_x
 _atom_site_fract_y
 _atom_site_fract_z
 _atom_site_occupancy
  Ba  Ba0  2  0.00000000  0.00000000  0.16622700  1.0
  H  H1  8  0.22183950  0.16101050  0.65874150  1.0
  H  H2  4  0.00000000  0.29113550  0.77254450  1.0
  H  H3  4  0.00000000  0.34392500  0.42332100  1.0
  H  H4  4  0.00000000  0.38347350  0.92703550  1.0
  H  H5  4  0.23223550  0.00000000  0.65871250  1.0
  H  H6  2  0.00000000  0.50000000  0.43692050  1.0
