# generated using pymatgen
data_BaH6
_symmetry_space_group_name_H-M   P-1
_cell_length_a   3.13911041
_cell_length_b   3.86573629
_cell_length_c   5.75802405
_cell_angle_alpha   92.91256062
_cell_angle_beta   104.41426319
_cell_angle_gamma   111.19415081
_symmetry_Int_Tables_number   2
_chemical_formula_structural   BaH6
_chemical_formula_sum   'Ba2 H12'
_cell_volume   62.32471534
_cell_formula_units_Z   2
loop_
 _symmetry_equiv_pos_site_id
 _symmetry_equiv_pos_as_xyz
  1  'x, y, z'
  2  '-x, -y, -z'
loop_
 _atom_site_type_symbol
 _atom_site_label
 _atom_site_symmetry_multiplicity
 _atom_site_fract_x
 _atom_site_fract_y
 _atom_site_fract_z
 _atom_site_occupancy
  Ba  Ba0  2  0.34197100  0.24292100  0.75138700  1.0
  H  H1  2  0.05485500  0.21602900  0.07922800  1.0
  H  H2  2  0.08337300  0.35399900  0.38683100  1.0
  H  H3  2  0.15280000  0.68563100  0.89559300  1.0
  H  H4  2  0.28072300  0.74054700  0.53748900  1.0
  H  H5  2  0.30918400  0.26811300  0.38037000  1.0
  H  H6  2  0.31507500  0.13379700  0.13058600  1.0
