# generated using pymatgen
data_BaH12
_symmetry_space_group_name_H-M   C2/m
_cell_length_a   6.08909427
_cell_length_b   4.05551313
_cell_length_c   3.56368162
_cell_angle_alpha   90.00000000
_cell_angle_beta   115.71691473
_cell_angle_gamma   90.00000000
_symmetry_Int_Tables_number   12
_chemical_formula_structural   BaH12
_chemical_formula_sum   'Ba2 H24'
_cell_volume   79.28619833
_cell_formula_units_Z   2
loop_
 _symmetry_equiv_pos_site_id
 _symmetry_equiv_pos_as_xyz
  1  'x, y, z'
  2  '-x, -y, -z'
  3  '-x, y, -z'
  4  'x, -y, z'
  5  'x+1/2, y+1/2, z'
  6  '-x+1/2, -y+1/2, -z'
  7  '-x+1/2, y+1/2, -z'
  8  'x+1/2, -y+1/2, z'
loop_
 _atom_site_type_symbol
 _atom_site_label
 _atom_site_symmetry_multiplicity
 _atom_site_fract_x
 _atom_site_fract_y
 _atom_site_fract_z
 _atom_site_occupancy
  Ba  Ba0  2  0.00000000  0.50000000  0.50000000  1.0
  H  H1  8  0.12499100  0.19694300  0.06732900  1.0
  H  H2  8  0.21641950  0.35075350  0.18304900  1.0
  H  H3  4  0.01413500  0.00000000  0.76289800  1.0
  H  H4  4  0.12719450  0.00000000  0.45978300  1.0
