# generated using pymatgen
data_Ba2H11
_symmetry_space_group_name_H-M   P-1
_cell_length_a   3.79667959
_cell_length_b   3.87225838
_cell_length_c   4.21838898
_cell_angle_alpha   90.50941458
_cell_angle_beta   91.50943168
_cell_angle_gamma   114.11148076
_symmetry_Int_Tables_number   2
_chemical_formula_structural   Ba2H11
_chemical_formula_sum   'Ba2 H11'
_cell_volume   56.57393364
_cell_formula_units_Z   1
loop_
 _symmetry_equiv_pos_site_id
 _symmetry_equiv_pos_as_xyz
  1  'x, y, z'
  2  '-x, -y, -z'
loop_
 _atom_site_type_symbol
 _atom_site_label
 _atom_site_symmetry_multiplicity
 _atom_site_fract_x
 _atom_site_fract_y
 _atom_site_fract_z
 _atom_site_occupancy
  Ba  Ba0  1  0.00000000  0.00000000  0.00000000  1.0
  Ba  Ba1  1  0.50000000  0.50000000  0.50000000  1.0
  H  H2  2  0.00857200  0.51677200  0.27639100  1.0
  H  H3  2  0.19529200  0.58658600  0.88346800  1.0
  H  H4  2  0.19688400  0.87908800  0.50466800  1.0
  H  H5  2  0.38447900  0.67257600  0.02874100  1.0
  H  H6  2  0.49837000  0.00514000  0.72417800  1.0
  H  H7  1  0.00000000  0.00000000  0.50000000  1.0
