# generated using pymatgen
data_BaH11
_symmetry_space_group_name_H-M   Imm2
_cell_length_a   3.30733594
_cell_length_b   4.26702954
_cell_length_c   5.95777011
_cell_angle_alpha   90.00000000
_cell_angle_beta   90.00000000
_cell_angle_gamma   90.00000000
_symmetry_Int_Tables_number   44
_chemical_formula_structural   BaH11
_chemical_formula_sum   'Ba2 H22'
_cell_volume   84.07903169
_cell_formula_units_Z   2
loop_
 _symmetry_equiv_pos_site_id
 _symmetry_equiv_pos_as_xyz
  1  'x, y, z'
  2  '-x, -y, z'
  3  '-x, y, z'
  4  'x, -y, z'
  5  'x+1/2, y+1/2, z+1/2'
  6  '-x+1/2, -y+1/2, z+1/2'
  7  '-x+1/2, y+1/2, z+1/2'
  8  'x+1/2, -y+1/2, z+1/2'
loop_
 _atom_site_type_symbol
 _atom_site_label
 _atom_site_symmetry_multiplicity
 _atom_site_fract_x
 _atom_site_fract_y
 _atom_site_fract_z
 _atom_site_occupancy
  Ba  Ba0  2  0.00000000  0.00000000  0.37979000  1.0
  H  H1  4  0.00000000  0.17776550  0.02450850  1.0
  H  H2  4  0.00000000  0.27712250  0.68025250  1.0
  H  H3  4  0.00000000  0.34484850  0.09853150  1.0
  H  H4  4  0.22462450  0.00000000  0.76841450  1.0
  H  H5  4  0.24092700  0.50000000  0.40566000  1.0
  H  H6  2  0.00000000  0.50000000  0.62816900  1.0
