# generated using pymatgen
data_BaH11
_symmetry_space_group_name_H-M   P-1
_cell_length_a   3.80578910
_cell_length_b   4.53918358
_cell_length_c   5.27140820
_cell_angle_alpha   97.92735191
_cell_angle_beta   100.57643400
_cell_angle_gamma   113.95598271
_symmetry_Int_Tables_number   2
_chemical_formula_structural   BaH11
_chemical_formula_sum   'Ba2 H22'
_cell_volume   79.48570139
_cell_formula_units_Z   2
loop_
 _symmetry_equiv_pos_site_id
 _symmetry_equiv_pos_as_xyz
  1  'x, y, z'
  2  '-x, -y, -z'
loop_
 _atom_site_type_symbol
 _atom_site_label
 _atom_site_symmetry_multiplicity
 _atom_site_fract_x
 _atom_site_fract_y
 _atom_site_fract_z
 _atom_site_occupancy
  Ba  Ba0  2  0.48021100  0.15884600  0.76852500  1.0
  H  H1  2  0.00947700  0.66382200  0.77850800  1.0
  H  H2  2  0.01180800  0.91887100  0.01336200  1.0
  H  H3  2  0.01941200  0.72056900  0.42935600  1.0
  H  H4  2  0.10709600  0.49403800  0.84773500  1.0
  H  H5  2  0.13463200  0.22848300  0.32161800  1.0
  H  H6  2  0.13530100  0.36376300  0.94434600  1.0
  H  H7  2  0.15094200  0.05375300  0.36411400  1.0
  H  H8  2  0.16991200  0.64449100  0.50828400  1.0
  H  H9  2  0.37410900  0.30936000  0.13739700  1.0
  H  H10  2  0.40064000  0.52050700  0.51557300  1.0
  H  H11  2  0.42367400  0.65206200  0.75864200  1.0
