# generated using pymatgen
data_BaH8
_symmetry_space_group_name_H-M   P1
_cell_length_a   4.02273493
_cell_length_b   4.04009850
_cell_length_c   4.36146652
_cell_angle_alpha   93.90139928
_cell_angle_beta   95.00827151
_cell_angle_gamma   90.88419445
_symmetry_Int_Tables_number   1
_chemical_formula_structural   BaH8
_chemical_formula_sum   'Ba2 H16'
_cell_volume   70.43307120
_cell_formula_units_Z   2
loop_
 _symmetry_equiv_pos_site_id
 _symmetry_equiv_pos_as_xyz
  1  'x, y, z'
loop_
 _atom_site_type_symbol
 _atom_site_label
 _atom_site_symmetry_multiplicity
 _atom_site_fract_x
 _atom_site_fract_y
 _atom_site_fract_z
 _atom_site_occupancy
  Ba  Ba0  1  0.46207500  0.20738300  0.45174800  1.0
  Ba  Ba1  1  0.88690900  0.69487900  0.93528400  1.0
  H  H2  1  0.03906000  0.17545800  0.76178700  1.0
  H  H3  1  0.06976200  0.55635900  0.43094600  1.0
  H  H4  1  0.14866500  0.19017300  0.93041100  1.0
  H  H5  1  0.23617300  0.69497400  0.35174800  1.0
  H  H6  1  0.35361500  0.72269000  0.65758300  1.0
  H  H7  1  0.37690600  0.85427100  0.82136800  1.0
  H  H8  1  0.38670500  0.90305900  0.05004600  1.0
  H  H9  1  0.38695700  0.43958700  0.96306300  1.0
  H  H10  1  0.39924100  0.59752700  0.09788100  1.0
  H  H11  1  0.62562000  0.69026700  0.37719900  1.0
  H  H12  1  0.62936300  0.18373600  0.92353500  1.0
  H  H13  1  0.79291200  0.20475000  0.07666500  1.0
  H  H14  1  0.81628600  0.81005700  0.44116500  1.0
  H  H15  1  0.97015200  0.98551600  0.49629300  1.0
  H  H16  1  0.97116600  0.39025100  0.52346600  1.0
  H  H17  1  0.97476200  0.19962400  0.21504700  1.0
