# generated using pymatgen
data_BaH17
_symmetry_space_group_name_H-M   C2
_cell_length_a   4.45232824
_cell_length_b   7.78425061
_cell_length_c   3.02489430
_cell_angle_alpha   90.00000000
_cell_angle_beta   91.94227964
_cell_angle_gamma   90.00000000
_symmetry_Int_Tables_number   5
_chemical_formula_structural   BaH17
_chemical_formula_sum   'Ba2 H34'
_cell_volume   104.77667318
_cell_formula_units_Z   2
loop_
 _symmetry_equiv_pos_site_id
 _symmetry_equiv_pos_as_xyz
  1  'x, y, z'
  2  '-x, y, -z'
  3  'x+1/2, y+1/2, z'
  4  '-x+1/2, y+1/2, -z'
loop_
 _atom_site_type_symbol
 _atom_site_label
 _atom_site_symmetry_multiplicity
 _atom_site_fract_x
 _atom_site_fract_y
 _atom_site_fract_z
 _atom_site_occupancy
  Ba  Ba0  2  0.00000000  0.46617800  0.00000000  1.0
  H  H1  4  0.05434800  0.06519100  0.21161000  1.0
  H  H2  4  0.08679850  0.67946450  0.53893300  1.0
  H  H3  4  0.13694700  0.89446000  0.49224300  1.0
  H  H4  4  0.14634500  0.18984100  0.81625400  1.0
  H  H5  4  0.17102700  0.08233000  0.42191300  1.0
  H  H6  4  0.22849250  0.72120850  0.98884700  1.0
  H  H7  4  0.23893600  0.81797300  0.51067500  1.0
  H  H8  2  0.00000000  0.24795850  0.50000000  1.0
  H  H9  2  0.00000000  0.81665350  0.00000000  1.0
  H  H10  2  0.00000000  0.92335950  0.00000000  1.0
