# generated using pymatgen
data_BaH22
_symmetry_space_group_name_H-M   P1
_cell_length_a   3.72122538
_cell_length_b   4.09384165
_cell_length_c   4.51344211
_cell_angle_alpha   103.78176085
_cell_angle_beta   111.83096851
_cell_angle_gamma   93.59214246
_symmetry_Int_Tables_number   1
_chemical_formula_structural   BaH22
_chemical_formula_sum   'Ba1 H22'
_cell_volume   61.11120118
_cell_formula_units_Z   1
loop_
 _symmetry_equiv_pos_site_id
 _symmetry_equiv_pos_as_xyz
  1  'x, y, z'
loop_
 _atom_site_type_symbol
 _atom_site_label
 _atom_site_symmetry_multiplicity
 _atom_site_fract_x
 _atom_site_fract_y
 _atom_site_fract_z
 _atom_site_occupancy
  Ba  Ba0  1  0.03342800  0.43491800  0.63272500  1.0
  H  H1  1  0.03968900  0.55969400  0.15866900  1.0
  H  H2  1  0.04413600  0.83463500  0.35465900  1.0
  H  H3  1  0.07633800  0.36863100  0.12908400  1.0
  H  H4  1  0.09235700  0.07539300  0.13458400  1.0
  H  H5  1  0.16432400  0.89244200  0.08004000  1.0
  H  H6  1  0.22557000  0.99249200  0.82049900  1.0
  H  H7  1  0.34385100  0.94843000  0.70802400  1.0
  H  H8  1  0.40518000  0.76669100  0.15053000  1.0
  H  H9  1  0.42407100  0.16088100  0.43937500  1.0
  H  H10  1  0.44186400  0.49609100  0.42242700  1.0
  H  H11  1  0.46996900  0.69270600  0.50209200  1.0
  H  H12  1  0.47906300  0.34422400  0.11378900  1.0
  H  H13  1  0.51551500  0.57568500  0.14403400  1.0
  H  H14  1  0.53671000  0.00137200  0.44927500  1.0
  H  H15  1  0.58075100  0.11632200  0.14285500  1.0
  H  H16  1  0.61603100  0.29829200  0.84182300  1.0
  H  H17  1  0.67627600  0.77885000  0.86799700  1.0
  H  H18  1  0.69067800  0.61719100  0.93240600  1.0
  H  H19  1  0.73352400  0.13359000  0.83802100  1.0
  H  H20  1  0.76643400  0.02938600  0.14024900  1.0
  H  H21  1  0.82942300  0.94680600  0.69178500  1.0
  H  H22  1  0.85864800  0.85521800  0.40119000  1.0
