# generated using pymatgen
data_BaH9
_symmetry_space_group_name_H-M   P-1
_cell_length_a   3.09664823
_cell_length_b   3.88823676
_cell_length_c   6.62347981
_cell_angle_alpha   83.50889381
_cell_angle_beta   80.33307347
_cell_angle_gamma   69.47608205
_symmetry_Int_Tables_number   2
_chemical_formula_structural   BaH9
_chemical_formula_sum   'Ba2 H18'
_cell_volume   73.50055408
_cell_formula_units_Z   2
loop_
 _symmetry_equiv_pos_site_id
 _symmetry_equiv_pos_as_xyz
  1  'x, y, z'
  2  '-x, -y, -z'
loop_
 _atom_site_type_symbol
 _atom_site_label
 _atom_site_symmetry_multiplicity
 _atom_site_fract_x
 _atom_site_fract_y
 _atom_site_fract_z
 _atom_site_occupancy
  Ba  Ba0  2  0.24211400  0.82025500  0.28836650  1.0
  H  H1  2  0.00924900  0.54531100  0.89806150  1.0
  H  H2  2  0.04491400  0.58692400  0.77030950  1.0
  H  H3  2  0.12941000  0.58066800  0.59694650  1.0
  H  H4  2  0.16484100  0.18878300  0.98486850  1.0
  H  H5  2  0.27281100  0.98179100  0.94096950  1.0
  H  H6  2  0.30640200  0.28071000  0.47756350  1.0
  H  H7  2  0.41459500  0.77066200  0.79823850  1.0
  H  H8  2  0.45824400  0.59443000  0.96470650  1.0
  H  H9  2  0.47153800  0.77413600  0.63347150  1.0
