# generated using pymatgen
data_BaH10
_symmetry_space_group_name_H-M   P1
_cell_length_a   3.42972471
_cell_length_b   3.65168837
_cell_length_c   6.67578414
_cell_angle_alpha   84.60564559
_cell_angle_beta   76.64572657
_cell_angle_gamma   75.00561219
_symmetry_Int_Tables_number   1
_chemical_formula_structural   BaH10
_chemical_formula_sum   'Ba2 H20'
_cell_volume   78.52664322
_cell_formula_units_Z   2
loop_
 _symmetry_equiv_pos_site_id
 _symmetry_equiv_pos_as_xyz
  1  'x, y, z'
loop_
 _atom_site_type_symbol
 _atom_site_label
 _atom_site_symmetry_multiplicity
 _atom_site_fract_x
 _atom_site_fract_y
 _atom_site_fract_z
 _atom_site_occupancy
  Ba  Ba0  1  0.23712400  0.20016800  0.69412400  1.0
  Ba  Ba1  1  0.90683100  0.76631900  0.23085900  1.0
  H  H2  1  0.15336700  0.23784300  0.03399400  1.0
  H  H3  1  0.20840100  0.67388200  0.89428100  1.0
  H  H4  1  0.24239900  0.93087000  0.42630600  1.0
  H  H5  1  0.25850000  0.11602900  0.32675200  1.0
  H  H6  1  0.34470000  0.20058900  0.17382300  1.0
  H  H7  1  0.38887300  0.45347200  0.37846600  1.0
  H  H8  1  0.45204100  0.67481700  0.51222200  1.0
  H  H9  1  0.47085600  0.88718200  0.99972800  1.0
  H  H10  1  0.52393000  0.63912500  0.03645600  1.0
  H  H11  1  0.53590400  0.38476100  0.12143000  1.0
  H  H12  1  0.60151600  0.34342400  0.88660600  1.0
  H  H13  1  0.61514500  0.60270700  0.79841500  1.0
  H  H14  1  0.64147700  0.59793000  0.57335000  1.0
  H  H15  1  0.64699100  0.29767700  0.39561400  1.0
  H  H16  1  0.66644100  0.09156500  0.91882900  1.0
  H  H17  1  0.83523600  0.78041800  0.69795100  1.0
  H  H18  1  0.84950800  0.23450500  0.46463600  1.0
  H  H19  1  0.91535900  0.30585900  0.02349400  1.0
  H  H20  1  0.95117900  0.83266000  0.56714800  1.0
  H  H21  1  0.96886600  0.73306600  0.88416800  1.0
