# generated using pymatgen
data_Ba2H11
_symmetry_space_group_name_H-M   P1
_cell_length_a   2.96766353
_cell_length_b   3.88916918
_cell_length_c   5.50550887
_cell_angle_alpha   90.34923772
_cell_angle_beta   90.25420504
_cell_angle_gamma   112.20977850
_symmetry_Int_Tables_number   1
_chemical_formula_structural   Ba2H11
_chemical_formula_sum   'Ba2 H11'
_cell_volume   58.82601289
_cell_formula_units_Z   1
loop_
 _symmetry_equiv_pos_site_id
 _symmetry_equiv_pos_as_xyz
  1  'x, y, z'
loop_
 _atom_site_type_symbol
 _atom_site_label
 _atom_site_symmetry_multiplicity
 _atom_site_fract_x
 _atom_site_fract_y
 _atom_site_fract_z
 _atom_site_occupancy
  Ba  Ba0  1  0.00919100  0.93869000  0.32723700  1.0
  Ba  Ba1  1  0.19017100  0.30192200  0.80967800  1.0
  H  H2  1  0.00650900  0.44631000  0.16126400  1.0
  H  H3  1  0.27408300  0.53771900  0.45801900  1.0
  H  H4  1  0.33395800  0.51537500  0.17661200  1.0
  H  H5  1  0.44351100  0.90009000  0.98301900  1.0
  H  H6  1  0.48421100  0.87909600  0.65105100  1.0
  H  H7  1  0.51671700  0.45412900  0.46623300  1.0
  H  H8  1  0.65847100  0.33795300  0.14568900  1.0
  H  H9  1  0.67537300  0.79922000  0.97118700  1.0
  H  H10  1  0.75430600  0.34846600  0.48706000  1.0
  H  H11  1  0.89904800  0.72049600  0.68698800  1.0
  H  H12  1  0.93724600  0.72600300  0.94344100  1.0
