# generated using pymatgen
data_BaH13
_symmetry_space_group_name_H-M   Cm
_cell_length_a   6.22315386
_cell_length_b   4.05690222
_cell_length_c   3.70772786
_cell_angle_alpha   90.00000000
_cell_angle_beta   111.22638641
_cell_angle_gamma   90.00000000
_symmetry_Int_Tables_number   8
_chemical_formula_structural   BaH13
_chemical_formula_sum   'Ba2 H26'
_cell_volume   87.25736027
_cell_formula_units_Z   2
loop_
 _symmetry_equiv_pos_site_id
 _symmetry_equiv_pos_as_xyz
  1  'x, y, z'
  2  'x, -y, z'
  3  'x+1/2, y+1/2, z'
  4  'x+1/2, -y+1/2, z'
loop_
 _atom_site_type_symbol
 _atom_site_label
 _atom_site_symmetry_multiplicity
 _atom_site_fract_x
 _atom_site_fract_y
 _atom_site_fract_z
 _atom_site_occupancy
  Ba  Ba0  2  0.16948500  0.50000000  0.10421800  1.0
  H  H1  4  0.04565850  0.17006850  0.55542900  1.0
  H  H2  4  0.29177950  0.19140050  0.66589800  1.0
  H  H3  4  0.37260650  0.34502750  0.75503700  1.0
  H  H4  4  0.47585750  0.16023750  0.45648000  1.0
  H  H5  2  0.00357650  0.00000000  0.03233300  1.0
  H  H6  2  0.09314350  0.00000000  0.27070600  1.0
  H  H7  2  0.18731550  0.00000000  0.86829500  1.0
  H  H8  2  0.27188600  0.00000000  0.41049600  1.0
  H  H9  2  0.30778350  0.00000000  0.08050900  1.0
