# generated using pymatgen
data_BaH11
_symmetry_space_group_name_H-M   Imm2
_cell_length_a   3.30733594
_cell_length_b   4.26702954
_cell_length_c   5.95777011
_cell_angle_alpha   90.00000000
_cell_angle_beta   90.00000000
_cell_angle_gamma   90.00000000
_symmetry_Int_Tables_number   44
_chemical_formula_structural   BaH11
_chemical_formula_sum   'Ba2 H22'
_cell_volume   84.07903169
_cell_formula_units_Z   2
loop_
 _symmetry_equiv_pos_site_id
 _symmetry_equiv_pos_as_xyz
  1  'x, y, z'
  2  '-x, -y, z'
  3  '-x, y, z'
  4  'x, -y, z'
  5  'x+1/2, y+1/2, z+1/2'
  6  '-x+1/2, -y+1/2, z+1/2'
  7  '-x+1/2, y+1/2, z+1/2'
  8  'x+1/2, -y+1/2, z+1/2'
loop_
 _atom_site_type_symbol
 _atom_site_label
 _atom_site_symmetry_multiplicity
 _atom_site_fract_x
 _atom_site_fract_y
 _atom_site_fract_z
 _atom_site_occupancy
  Ba  Ba0  2  0.000000  0.000000  0.379790  1.0
  H  H1  4  0.000000  0.177766  0.024509  1.0
  H  H2  4  0.000000  0.277122  0.680253  1.0
  H  H3  4  0.000000  0.344849  0.098531  1.0
  H  H4  4  0.224624  0.000000  0.768415  1.0
  H  H5  4  0.240927  0.500000  0.405660  1.0
  H  H6  2  0.000000  0.500000  0.628169  1.0
