# generated using pymatgen
data_BaH9
_symmetry_space_group_name_H-M   P-1
_cell_length_a   3.87172016
_cell_length_b   4.62147578
_cell_length_c   4.73867860
_cell_angle_alpha   84.07277748
_cell_angle_beta   66.01230678
_cell_angle_gamma   77.84110118
_symmetry_Int_Tables_number   2
_chemical_formula_structural   BaH9
_chemical_formula_sum   'Ba2 H18'
_cell_volume   75.71388152
_cell_formula_units_Z   2
loop_
 _symmetry_equiv_pos_site_id
 _symmetry_equiv_pos_as_xyz
  1  'x, y, z'
  2  '-x, -y, -z'
loop_
 _atom_site_type_symbol
 _atom_site_label
 _atom_site_symmetry_multiplicity
 _atom_site_fract_x
 _atom_site_fract_y
 _atom_site_fract_z
 _atom_site_occupancy
  Ba  Ba0  2  0.00097950  0.75186200  0.25443900  1.0
  H  H1  2  0.09238750  0.23672300  0.20389700  1.0
  H  H2  2  0.13922050  0.73912500  0.68778500  1.0
  H  H3  2  0.36812550  0.34664500  0.96397200  1.0
  H  H4  2  0.38265750  0.88934200  0.42247100  1.0
  H  H5  2  0.40083450  0.50160400  0.84452000  1.0
  H  H6  2  0.41901750  0.07256600  0.98184800  1.0
  H  H7  2  0.43845650  0.58178200  0.47954000  1.0
  H  H8  2  0.46721250  0.08810500  0.31064100  1.0
  H  H9  2  0.48462950  0.27802300  0.24180600  1.0
