# generated using pymatgen
data_BaH11
_symmetry_space_group_name_H-M   Imm2
_cell_length_a   3.23038442
_cell_length_b   4.17930958
_cell_length_c   5.92002032
_cell_angle_alpha   90.00000000
_cell_angle_beta   90.00000000
_cell_angle_gamma   90.00000000
_symmetry_Int_Tables_number   44
_chemical_formula_structural   BaH11
_chemical_formula_sum   'Ba2 H22'
_cell_volume   79.92487151
_cell_formula_units_Z   2
loop_
 _symmetry_equiv_pos_site_id
 _symmetry_equiv_pos_as_xyz
  1  'x, y, z'
  2  '-x, -y, z'
  3  '-x, y, z'
  4  'x, -y, z'
  5  'x+1/2, y+1/2, z+1/2'
  6  '-x+1/2, -y+1/2, z+1/2'
  7  '-x+1/2, y+1/2, z+1/2'
  8  'x+1/2, -y+1/2, z+1/2'
loop_
 _atom_site_type_symbol
 _atom_site_label
 _atom_site_symmetry_multiplicity
 _atom_site_fract_x
 _atom_site_fract_y
 _atom_site_fract_z
 _atom_site_occupancy
  Ba  Ba0  2  0.000000  0.000000  0.693183  1.0
  H  H1  4  0.000000  0.172359  0.047483  1.0
  H  H2  4  0.000000  0.275192  0.394823  1.0
  H  H3  4  0.000000  0.343620  0.972420  1.0
  H  H4  4  0.222956  0.000000  0.307906  1.0
  H  H5  4  0.239567  0.500000  0.668849  1.0
  H  H6  2  0.000000  0.500000  0.448799  1.0
