# generated using pymatgen
data_BaH19
_symmetry_space_group_name_H-M   P1
_cell_length_a   4.02985981
_cell_length_b   4.03999931
_cell_length_c   4.26767661
_cell_angle_alpha   79.56729479
_cell_angle_beta   63.86377978
_cell_angle_gamma   62.56749359
_symmetry_Int_Tables_number   1
_chemical_formula_structural   BaH19
_chemical_formula_sum   'Ba1 H19'
_cell_volume   55.34127012
_cell_formula_units_Z   1
loop_
 _symmetry_equiv_pos_site_id
 _symmetry_equiv_pos_as_xyz
  1  'x, y, z'
loop_
 _atom_site_type_symbol
 _atom_site_label
 _atom_site_symmetry_multiplicity
 _atom_site_fract_x
 _atom_site_fract_y
 _atom_site_fract_z
 _atom_site_occupancy
  Ba  Ba0  1  0.04731900  0.36083400  0.12422200  1.0
  H  H1  1  0.06069000  0.68704600  0.63808800  1.0
  H  H2  1  0.06081000  0.87433900  0.86545300  1.0
  H  H3  1  0.20333000  0.81734600  0.96837800  1.0
  H  H4  1  0.22564400  0.01109100  0.56678400  1.0
  H  H5  1  0.22909500  0.20458500  0.58501100  1.0
  H  H6  1  0.36696700  0.66006600  0.21292900  1.0
  H  H7  1  0.39118900  0.79404500  0.31567600  1.0
  H  H8  1  0.47036100  0.55115800  0.60088600  1.0
  H  H9  1  0.49693500  0.34846100  0.56112800  1.0
  H  H10  1  0.53333200  0.22831100  0.28472200  1.0
  H  H11  1  0.56150700  0.82849500  0.81303200  1.0
  H  H12  1  0.61664500  0.76632300  0.56280600  1.0
  H  H13  1  0.64166400  0.44174600  0.87685100  1.0
  H  H14  1  0.64426400  0.02805600  0.18024600  1.0
  H  H15  1  0.66230000  0.91446800  0.90375500  1.0
  H  H16  1  0.73860300  0.23284100  0.82111800  1.0
  H  H17  1  0.79856900  0.92291600  0.44025600  1.0
  H  H18  1  0.86154800  0.01716400  0.55142600  1.0
  H  H19  1  0.99887000  0.53837900  0.60883800  1.0
