# generated using pymatgen
data_BaH13
_symmetry_space_group_name_H-M   Cm
_cell_length_a   6.43609966
_cell_length_b   4.11009528
_cell_length_c   3.79829792
_cell_angle_alpha   90.00000000
_cell_angle_beta   111.12868604
_cell_angle_gamma   90.00000000
_symmetry_Int_Tables_number   8
_chemical_formula_structural   BaH13
_chemical_formula_sum   'Ba2 H26'
_cell_volume   93.72160677
_cell_formula_units_Z   2
loop_
 _symmetry_equiv_pos_site_id
 _symmetry_equiv_pos_as_xyz
  1  'x, y, z'
  2  'x, -y, z'
  3  'x+1/2, y+1/2, z'
  4  'x+1/2, -y+1/2, z'
loop_
 _atom_site_type_symbol
 _atom_site_label
 _atom_site_symmetry_multiplicity
 _atom_site_fract_x
 _atom_site_fract_y
 _atom_site_fract_z
 _atom_site_occupancy
  Ba  Ba0  2  0.33483300  0.00000000  0.57857400  1.0
  H  H1  4  0.03230700  0.33844300  0.23587100  1.0
  H  H2  4  0.12751000  0.16259000  0.91506400  1.0
  H  H3  4  0.21010900  0.29742200  0.01576100  1.0
  H  H4  4  0.45761250  0.31844350  0.12865800  1.0
  H  H5  2  0.00300100  0.00000000  0.63338500  1.0
  H  H6  2  0.19776050  0.50000000  0.61522600  1.0
  H  H7  2  0.23385050  0.50000000  0.26441800  1.0
  H  H8  2  0.31826950  0.50000000  0.81504000  1.0
  H  H9  2  0.40356750  0.50000000  0.40699900  1.0
