# generated using pymatgen
data_Ba2H15
_symmetry_space_group_name_H-M   P-1
_cell_length_a   3.91853179
_cell_length_b   4.25733758
_cell_length_c   4.36938261
_cell_angle_alpha   73.28915306
_cell_angle_beta   65.19152139
_cell_angle_gamma   83.20069106
_symmetry_Int_Tables_number   2
_chemical_formula_structural   Ba2H15
_chemical_formula_sum   'Ba2 H15'
_cell_volume   63.37093818
_cell_formula_units_Z   1
loop_
 _symmetry_equiv_pos_site_id
 _symmetry_equiv_pos_as_xyz
  1  'x, y, z'
  2  '-x, -y, -z'
loop_
 _atom_site_type_symbol
 _atom_site_label
 _atom_site_symmetry_multiplicity
 _atom_site_fract_x
 _atom_site_fract_y
 _atom_site_fract_z
 _atom_site_occupancy
  Ba  Ba0  2  0.31658200  0.23729850  0.80285350  1.0
  H  H1  2  0.09405300  0.72201150  0.62105150  1.0
  H  H2  2  0.09893500  0.89426050  0.32385050  1.0
  H  H3  2  0.20245500  0.52524550  0.21690250  1.0
  H  H4  2  0.21050900  0.08806650  0.37467450  1.0
  H  H5  2  0.21419100  0.76976050  0.71746750  1.0
  H  H6  2  0.29269400  0.65316050  0.00877550  1.0
  H  H7  2  0.39602800  0.23049350  0.28581950  1.0
  H  H8  1  0.00000000  0.50000000  0.50000000  1.0
