# generated using pymatgen
data_Ba2H19
_symmetry_space_group_name_H-M   C2
_cell_length_a   7.64817368
_cell_length_b   3.92397000
_cell_length_c   5.05042212
_cell_angle_alpha   90.00000000
_cell_angle_beta   108.86169821
_cell_angle_gamma   90.00000000
_symmetry_Int_Tables_number   5
_chemical_formula_structural   Ba2H19
_chemical_formula_sum   'Ba4 H38'
_cell_volume   143.43023553
_cell_formula_units_Z   2
loop_
 _symmetry_equiv_pos_site_id
 _symmetry_equiv_pos_as_xyz
  1  'x, y, z'
  2  '-x, y, -z'
  3  'x+1/2, y+1/2, z'
  4  '-x+1/2, y+1/2, -z'
loop_
 _atom_site_type_symbol
 _atom_site_label
 _atom_site_symmetry_multiplicity
 _atom_site_fract_x
 _atom_site_fract_y
 _atom_site_fract_z
 _atom_site_occupancy
  Ba  Ba0  4  0.24536800  0.22523400  0.75223700  1.0
  H  H1  4  0.02127800  0.95516900  0.93205000  1.0
  H  H2  4  0.03684900  0.00197400  0.34014100  1.0
  H  H3  4  0.03718650  0.54352450  0.85319600  1.0
  H  H4  4  0.04585700  0.43811800  0.35764100  1.0
  H  H5  4  0.11794950  0.73124150  0.74754700  1.0
  H  H6  4  0.12853500  0.22533200  0.25558500  1.0
  H  H7  4  0.13930600  0.22872500  0.09459700  1.0
  H  H8  4  0.14215950  0.72796850  0.59576400  1.0
  H  H9  2  0.00000000  0.46972750  0.00000000  1.0
  H  H10  2  0.00000000  0.47825000  0.50000000  1.0
  H  H11  2  0.00000000  0.98645200  0.50000000  1.0
