# generated using pymatgen
data_BaH12
_symmetry_space_group_name_H-M   P1
_cell_length_a   3.05364805
_cell_length_b   3.89559370
_cell_length_c   3.96277345
_cell_angle_alpha   89.30499844
_cell_angle_beta   67.76684613
_cell_angle_gamma   88.37363844
_symmetry_Int_Tables_number   1
_chemical_formula_structural   BaH12
_chemical_formula_sum   'Ba1 H12'
_cell_volume   43.61782956
_cell_formula_units_Z   1
loop_
 _symmetry_equiv_pos_site_id
 _symmetry_equiv_pos_as_xyz
  1  'x, y, z'
loop_
 _atom_site_type_symbol
 _atom_site_label
 _atom_site_symmetry_multiplicity
 _atom_site_fract_x
 _atom_site_fract_y
 _atom_site_fract_z
 _atom_site_occupancy
  Ba  Ba0  1  0.43424200  0.84759400  0.04351800  1.0
  H  H1  1  0.13172800  0.06051100  0.63439800  1.0
  H  H2  1  0.13423900  0.49911900  0.73024600  1.0
  H  H3  1  0.14978900  0.66855200  0.61687000  1.0
  H  H4  1  0.21079100  0.34454200  0.27541400  1.0
  H  H5  1  0.44965700  0.32265100  0.32320400  1.0
  H  H6  1  0.51466800  0.34338000  0.76559100  1.0
  H  H7  1  0.61466600  0.08715100  0.47100200  1.0
  H  H8  1  0.72640200  0.33875700  0.84130500  1.0
  H  H9  1  0.72902800  0.67370200  0.46898700  1.0
  H  H10  1  0.80199300  0.50410400  0.34994400  1.0
  H  H11  1  0.91802200  0.07901800  0.53694700  1.0
  H  H12  1  0.97893400  0.32645000  0.04015700  1.0
