# generated using pymatgen
data_BaH11
_symmetry_space_group_name_H-M   Cm
_cell_length_a   6.22673171
_cell_length_b   4.15428380
_cell_length_c   3.77603278
_cell_angle_alpha   90.00000000
_cell_angle_beta   119.81493859
_cell_angle_gamma   90.00000000
_symmetry_Int_Tables_number   8
_chemical_formula_structural   BaH11
_chemical_formula_sum   'Ba2 H22'
_cell_volume   84.74802001
_cell_formula_units_Z   2
loop_
 _symmetry_equiv_pos_site_id
 _symmetry_equiv_pos_as_xyz
  1  'x, y, z'
  2  'x, -y, z'
  3  'x+1/2, y+1/2, z'
  4  'x+1/2, -y+1/2, z'
loop_
 _atom_site_type_symbol
 _atom_site_label
 _atom_site_symmetry_multiplicity
 _atom_site_fract_x
 _atom_site_fract_y
 _atom_site_fract_z
 _atom_site_occupancy
  Ba  Ba0  2  0.48243200  0.50000000  0.52120500  1.0
  H  H1  4  0.14973600  0.22962000  0.13893800  1.0
  H  H2  4  0.28929150  0.32705850  0.87414300  1.0
  H  H3  4  0.40251900  0.19974800  0.97996800  1.0
  H  H4  2  0.03287000  0.50000000  0.82884000  1.0
  H  H5  2  0.04485400  0.50000000  0.29252600  1.0
  H  H6  2  0.13596850  0.50000000  0.54529200  1.0
  H  H7  2  0.21510750  0.00000000  0.21780000  1.0
  H  H8  2  0.39165250  0.00000000  0.61606600  1.0
