# generated using pymatgen
data_Ba3H17
_symmetry_space_group_name_H-M   P1
_cell_length_a   3.77470562
_cell_length_b   3.83302770
_cell_length_c   7.22628444
_cell_angle_alpha   75.39891601
_cell_angle_beta   82.07603534
_cell_angle_gamma   62.30970547
_symmetry_Int_Tables_number   1
_chemical_formula_structural   Ba3H17
_chemical_formula_sum   'Ba3 H17'
_cell_volume   89.56346061
_cell_formula_units_Z   1
loop_
 _symmetry_equiv_pos_site_id
 _symmetry_equiv_pos_as_xyz
  1  'x, y, z'
loop_
 _atom_site_type_symbol
 _atom_site_label
 _atom_site_symmetry_multiplicity
 _atom_site_fract_x
 _atom_site_fract_y
 _atom_site_fract_z
 _atom_site_occupancy
  Ba  Ba0  1  0.26917100  0.30398500  0.57171700  1.0
  Ba  Ba1  1  0.76108600  0.97439700  0.23108100  1.0
  Ba  Ba2  1  0.77906700  0.62398800  0.90432800  1.0
  H  H3  1  0.03728800  0.31106000  0.29878100  1.0
  H  H4  1  0.11898500  0.97727000  0.87853700  1.0
  H  H5  1  0.12323300  0.33767100  0.17814200  1.0
  H  H6  1  0.24798000  0.88674400  0.40987100  1.0
  H  H7  1  0.26678200  0.04648600  0.06029600  1.0
  H  H8  1  0.26747300  0.56136500  0.06507200  1.0
  H  H9  1  0.27900400  0.72958200  0.74300300  1.0
  H  H10  1  0.39388600  0.63843600  0.16966000  1.0
  H  H11  1  0.39844300  0.22818800  0.96466100  1.0
  H  H12  1  0.43192600  0.61635800  0.29283700  1.0
  H  H13  1  0.47512800  0.30440800  0.84794300  1.0
  H  H14  1  0.50896400  0.65756000  0.64286100  1.0
  H  H15  1  0.63299900  0.65638300  0.52536400  1.0
  H  H16  1  0.77026400  0.39637800  0.40432400  1.0
  H  H17  1  0.78917700  0.18621800  0.74013100  1.0
  H  H18  1  0.89023500  0.00823700  0.63601700  1.0
  H  H19  1  0.99383000  0.95498300  0.51150100  1.0
