# generated using pymatgen
data_BaH7
_symmetry_space_group_name_H-M   Amm2
_cell_length_a   3.04419664
_cell_length_b   5.54951797
_cell_length_c   11.41124260
_cell_angle_alpha   90.00000000
_cell_angle_beta   90.00000000
_cell_angle_gamma   90.00000000
_symmetry_Int_Tables_number   38
_chemical_formula_structural   BaH7
_chemical_formula_sum   'Ba6 H42'
_cell_volume   192.77952314
_cell_formula_units_Z   6
loop_
 _symmetry_equiv_pos_site_id
 _symmetry_equiv_pos_as_xyz
  1  'x, y, z'
  2  '-x, -y, z'
  3  '-x, y, z'
  4  'x, -y, z'
  5  'x, y+1/2, z+1/2'
  6  '-x, -y+1/2, z+1/2'
  7  '-x, y+1/2, z+1/2'
  8  'x, -y+1/2, z+1/2'
loop_
 _atom_site_type_symbol
 _atom_site_label
 _atom_site_symmetry_multiplicity
 _atom_site_fract_x
 _atom_site_fract_y
 _atom_site_fract_z
 _atom_site_occupancy
  Ba  Ba0  2  0.00000000  0.00000000  0.00217500  1.0
  Ba  Ba1  2  0.50000000  0.00000000  0.28948550  1.0
  Ba  Ba2  2  0.50000000  0.00000000  0.68244800  1.0
  H  H3  4  0.00000000  0.10524100  0.43621700  1.0
  H  H4  4  0.00000000  0.11908300  0.54909900  1.0
  H  H5  4  0.00000000  0.17382950  0.80151450  1.0
  H  H6  4  0.00000000  0.17816600  0.18349800  1.0
  H  H7  4  0.00000000  0.20858700  0.38292300  1.0
  H  H8  4  0.00000000  0.21182350  0.60937550  1.0
  H  H9  4  0.50000000  0.15050250  0.11110350  1.0
  H  H10  4  0.50000000  0.16240550  0.88070150  1.0
  H  H11  4  0.50000000  0.17490300  0.49264000  1.0
  H  H12  2  0.00000000  0.00000000  0.81526600  1.0
  H  H13  2  0.50000000  0.00000000  0.48757150  1.0
  H  H14  2  0.50000000  0.00000000  0.86764500  1.0
