# generated using pymatgen
data_Ba2H15
_symmetry_space_group_name_H-M   P-1
_cell_length_a   3.97581649
_cell_length_b   3.99836944
_cell_length_c   4.36910478
_cell_angle_alpha   105.02881142
_cell_angle_beta   99.83906340
_cell_angle_gamma   90.72290440
_symmetry_Int_Tables_number   2
_chemical_formula_structural   Ba2H15
_chemical_formula_sum   'Ba2 H15'
_cell_volume   65.97405570
_cell_formula_units_Z   1
loop_
 _symmetry_equiv_pos_site_id
 _symmetry_equiv_pos_as_xyz
  1  'x, y, z'
  2  '-x, -y, -z'
loop_
 _atom_site_type_symbol
 _atom_site_label
 _atom_site_symmetry_multiplicity
 _atom_site_fract_x
 _atom_site_fract_y
 _atom_site_fract_z
 _atom_site_occupancy
  Ba  Ba0  2  0.18803350  0.81328800  0.23631850  1.0
  H  H1  2  0.03488450  0.68168700  0.68452650  1.0
  H  H2  2  0.30029450  0.33357400  0.62884150  1.0
  H  H3  2  0.30706450  0.92167900  0.76486950  1.0
  H  H4  2  0.33529450  0.44100900  0.82358350  1.0
  H  H5  2  0.34559150  0.10017600  0.92432550  1.0
  H  H6  2  0.38779750  0.30671300  0.15759350  1.0
  H  H7  2  0.44162850  0.36348500  0.38966150  1.0
  H  H8  1  0.00000000  0.50000000  0.50000000  1.0
