# generated using pymatgen
data_BaH10
_symmetry_space_group_name_H-M   P-1
_cell_length_a   3.87724951
_cell_length_b   4.46153804
_cell_length_c   4.76198213
_cell_angle_alpha   98.72221975
_cell_angle_beta   104.14331053
_cell_angle_gamma   96.65113815
_symmetry_Int_Tables_number   2
_chemical_formula_structural   BaH10
_chemical_formula_sum   'Ba2 H20'
_cell_volume   77.94356702
_cell_formula_units_Z   2
loop_
 _symmetry_equiv_pos_site_id
 _symmetry_equiv_pos_as_xyz
  1  'x, y, z'
  2  '-x, -y, -z'
loop_
 _atom_site_type_symbol
 _atom_site_label
 _atom_site_symmetry_multiplicity
 _atom_site_fract_x
 _atom_site_fract_y
 _atom_site_fract_z
 _atom_site_occupancy
  Ba  Ba0  2  0.22093850  0.80441500  0.21607550  1.0
  H  H1  2  0.01786250  0.43249000  0.44232450  1.0
  H  H2  2  0.14424050  0.30296900  0.23563350  1.0
  H  H3  2  0.19294450  0.16412800  0.55732850  1.0
  H  H4  2  0.23984450  0.89547400  0.71200750  1.0
  H  H5  2  0.27888150  0.36909200  0.70433150  1.0
  H  H6  2  0.30556050  0.26232400  0.09809050  1.0
  H  H7  2  0.33855650  0.12986100  0.94927850  1.0
  H  H8  2  0.34149750  0.50367200  0.85869350  1.0
  H  H9  2  0.34882050  0.75919200  0.69991850  1.0
  H  H10  2  0.43900350  0.42658200  0.44297550  1.0
