# generated using pymatgen
data_BaH9
_symmetry_space_group_name_H-M   C2/m
_cell_length_a   7.73221883
_cell_length_b   2.95482896
_cell_length_c   6.52144159
_cell_angle_alpha   90.00000000
_cell_angle_beta   101.88629234
_cell_angle_gamma   90.00000000
_symmetry_Int_Tables_number   12
_chemical_formula_structural   BaH9
_chemical_formula_sum   'Ba4 H36'
_cell_volume   145.80311143
_cell_formula_units_Z   4
loop_
 _symmetry_equiv_pos_site_id
 _symmetry_equiv_pos_as_xyz
  1  'x, y, z'
  2  '-x, -y, -z'
  3  '-x, y, -z'
  4  'x, -y, z'
  5  'x+1/2, y+1/2, z'
  6  '-x+1/2, -y+1/2, -z'
  7  '-x+1/2, y+1/2, -z'
  8  'x+1/2, -y+1/2, z'
loop_
 _atom_site_type_symbol
 _atom_site_label
 _atom_site_symmetry_multiplicity
 _atom_site_fract_x
 _atom_site_fract_y
 _atom_site_fract_z
 _atom_site_occupancy
  Ba  Ba0  4  0.11711750  0.00000000  0.71409150  1.0
  H  H1  4  0.05249700  0.00000000  0.03480150  1.0
  H  H2  4  0.06901000  0.50000000  0.96505250  1.0
  H  H3  4  0.08436400  0.50000000  0.16972450  1.0
  H  H4  4  0.10152100  0.50000000  0.29967750  1.0
  H  H5  4  0.11916350  0.50000000  0.46168750  1.0
  H  H6  4  0.16820450  0.00000000  0.27365950  1.0
  H  H7  4  0.18107550  0.50000000  0.97371250  1.0
  H  H8  4  0.19613200  0.00000000  0.08142550  1.0
  H  H9  4  0.19860300  0.00000000  0.40178450  1.0
