# generated using pymatgen
data_Ba4H9
_symmetry_space_group_name_H-M   C2/m
_cell_length_a   7.83529662
_cell_length_b   2.97473050
_cell_length_c   7.79606008
_cell_angle_alpha   90.00000000
_cell_angle_beta   95.94223566
_cell_angle_gamma   90.00000000
_symmetry_Int_Tables_number   12
_chemical_formula_structural   Ba4H9
_chemical_formula_sum   'Ba8 H18'
_cell_volume   180.73338874
_cell_formula_units_Z   2
loop_
 _symmetry_equiv_pos_site_id
 _symmetry_equiv_pos_as_xyz
  1  'x, y, z'
  2  '-x, -y, -z'
  3  '-x, y, -z'
  4  'x, -y, z'
  5  'x+1/2, y+1/2, z'
  6  '-x+1/2, -y+1/2, -z'
  7  '-x+1/2, y+1/2, -z'
  8  'x+1/2, -y+1/2, z'
loop_
 _atom_site_type_symbol
 _atom_site_label
 _atom_site_symmetry_multiplicity
 _atom_site_fract_x
 _atom_site_fract_y
 _atom_site_fract_z
 _atom_site_occupancy
  Ba  Ba0  4  0.12419650  0.00000000  0.87842450  1.0
  Ba  Ba1  4  0.12996550  0.50000000  0.36715650  1.0
  H  H2  4  0.08415850  0.50000000  0.08346350  1.0
  H  H3  4  0.08889350  0.00000000  0.59015050  1.0
  H  H4  4  0.16222950  0.50000000  0.66258250  1.0
  H  H5  4  0.16646050  0.00000000  0.16535650  1.0
  H  H6  2  0.00000000  0.00000000  0.50000000  1.0
