# generated using pymatgen
data_BaH14
_symmetry_space_group_name_H-M   P-1
_cell_length_a   3.06005169
_cell_length_b   3.85022899
_cell_length_c   4.47023147
_cell_angle_alpha   64.69801323
_cell_angle_beta   82.37707876
_cell_angle_gamma   74.84042964
_symmetry_Int_Tables_number   2
_chemical_formula_structural   BaH14
_chemical_formula_sum   'Ba1 H14'
_cell_volume   45.94515611
_cell_formula_units_Z   1
loop_
 _symmetry_equiv_pos_site_id
 _symmetry_equiv_pos_as_xyz
  1  'x, y, z'
  2  '-x, -y, -z'
loop_
 _atom_site_type_symbol
 _atom_site_label
 _atom_site_symmetry_multiplicity
 _atom_site_fract_x
 _atom_site_fract_y
 _atom_site_fract_z
 _atom_site_occupancy
  Ba  Ba0  1  0.50000000  0.50000000  0.00000000  1.0
  H  H1  2  0.05424300  0.21048600  0.43356900  1.0
  H  H2  2  0.06884900  0.43121300  0.67148000  1.0
  H  H3  2  0.13576600  0.02599800  0.13543800  1.0
  H  H4  2  0.16829000  0.19802600  0.79857900  1.0
  H  H5  2  0.30099200  0.07447000  0.52068700  1.0
  H  H6  2  0.35267100  0.89855200  0.26284300  1.0
  H  H7  2  0.39559900  0.60885800  0.47375800  1.0
