# generated using pymatgen
data_Ba2H11
_symmetry_space_group_name_H-M   Cm
_cell_length_a   7.17120615
_cell_length_b   3.02855245
_cell_length_c   5.85663215
_cell_angle_alpha   90.00000000
_cell_angle_beta   114.53185072
_cell_angle_gamma   90.00000000
_symmetry_Int_Tables_number   8
_chemical_formula_structural   Ba2H11
_chemical_formula_sum   'Ba4 H22'
_cell_volume   115.71457333
_cell_formula_units_Z   2
loop_
 _symmetry_equiv_pos_site_id
 _symmetry_equiv_pos_as_xyz
  1  'x, y, z'
  2  'x, -y, z'
  3  'x+1/2, y+1/2, z'
  4  'x+1/2, -y+1/2, z'
loop_
 _atom_site_type_symbol
 _atom_site_label
 _atom_site_symmetry_multiplicity
 _atom_site_fract_x
 _atom_site_fract_y
 _atom_site_fract_z
 _atom_site_occupancy
  Ba  Ba0  2  0.11624550  0.00000000  0.17339700  1.0
  Ba  Ba1  2  0.13523100  0.00000000  0.68970800  1.0
  H  H2  2  0.26824650  0.50000000  0.00302000  1.0
  H  H3  2  0.27803350  0.50000000  0.53885300  1.0
  H  H4  2  0.32635500  0.50000000  0.40730500  1.0
  H  H5  2  0.36010400  0.50000000  0.27303300  1.0
  H  H6  2  0.36933750  0.50000000  0.79297700  1.0
  H  H7  2  0.37867350  0.00000000  0.04277200  1.0
  H  H8  2  0.38209350  0.00000000  0.53318800  1.0
  H  H9  2  0.42138100  0.00000000  0.21236000  1.0
  H  H10  2  0.42648800  0.00000000  0.70012100  1.0
  H  H11  2  0.48705700  0.00000000  0.87900100  1.0
  H  H12  2  0.49084850  0.00000000  0.38593100  1.0
