# generated using pymatgen
data_BaH19
_symmetry_space_group_name_H-M   P1
_cell_length_a   3.74461832
_cell_length_b   4.12032696
_cell_length_c   4.37140423
_cell_angle_alpha   116.83791593
_cell_angle_beta   105.53924041
_cell_angle_gamma   100.24027844
_symmetry_Int_Tables_number   1
_chemical_formula_structural   BaH19
_chemical_formula_sum   'Ba1 H19'
_cell_volume   54.36880827
_cell_formula_units_Z   1
loop_
 _symmetry_equiv_pos_site_id
 _symmetry_equiv_pos_as_xyz
  1  'x, y, z'
loop_
 _atom_site_type_symbol
 _atom_site_label
 _atom_site_symmetry_multiplicity
 _atom_site_fract_x
 _atom_site_fract_y
 _atom_site_fract_z
 _atom_site_occupancy
  Ba  Ba0  1  0.26644100  0.43744600  0.15719200  1.0
  H  H1  1  0.06034500  0.78925800  0.93504200  1.0
  H  H2  1  0.13218400  0.28676200  0.56849900  1.0
  H  H3  1  0.14384700  0.87851700  0.62663200  1.0
  H  H4  1  0.24778800  0.75590800  0.87236000  1.0
  H  H5  1  0.31059500  0.07606300  0.40259900  1.0
  H  H6  1  0.35638000  0.99643500  0.67099700  1.0
  H  H7  1  0.46029200  0.61803400  0.75409500  1.0
  H  H8  1  0.52400100  0.09122700  0.38577200  1.0
  H  H9  1  0.63690800  0.02603600  0.14549600  1.0
  H  H10  1  0.64408700  0.46078900  0.80874500  1.0
  H  H11  1  0.66864700  0.29556800  0.85477400  1.0
  H  H12  1  0.68469100  0.14378500  0.05475400  1.0
  H  H13  1  0.69579300  0.82886200  0.74440800  1.0
  H  H14  1  0.77593800  0.94699000  0.64193200  1.0
  H  H15  1  0.80028300  0.47247800  0.55507900  1.0
  H  H16  1  0.84842600  0.77135700  0.28338000  1.0
  H  H17  1  0.86803400  0.54828200  0.43847900  1.0
  H  H18  1  0.92251900  0.18045100  0.55911900  1.0
  H  H19  1  0.92544400  0.83953900  0.15882100  1.0
