# generated using pymatgen
data_Ba2H11
_symmetry_space_group_name_H-M   Cm
_cell_length_a   13.73268722
_cell_length_b   2.95707894
_cell_length_c   2.91936880
_cell_angle_alpha   90.00000000
_cell_angle_beta   102.18556596
_cell_angle_gamma   90.00000000
_symmetry_Int_Tables_number   8
_chemical_formula_structural   Ba2H11
_chemical_formula_sum   'Ba4 H22'
_cell_volume   115.88052294
_cell_formula_units_Z   2
loop_
 _symmetry_equiv_pos_site_id
 _symmetry_equiv_pos_as_xyz
  1  'x, y, z'
  2  'x, -y, z'
  3  'x+1/2, y+1/2, z'
  4  'x+1/2, -y+1/2, z'
loop_
 _atom_site_type_symbol
 _atom_site_label
 _atom_site_symmetry_multiplicity
 _atom_site_fract_x
 _atom_site_fract_y
 _atom_site_fract_z
 _atom_site_occupancy
  Ba  Ba0  2  0.02850300  0.00000000  0.15398000  1.0
  Ba  Ba1  2  0.28719900  0.00000000  0.39801100  1.0
  H  H2  4  0.15823900  0.13774100  0.77547300  1.0
  H  H3  2  0.08533450  0.50000000  0.70803200  1.0
  H  H4  2  0.15774500  0.50000000  0.13401600  1.0
  H  H5  2  0.15876350  0.50000000  0.41510100  1.0
  H  H6  2  0.23063200  0.50000000  0.84224100  1.0
  H  H7  2  0.36526900  0.50000000  0.97445100  1.0
  H  H8  2  0.40432850  0.50000000  0.52904600  1.0
  H  H9  2  0.40693550  0.00000000  0.06551600  1.0
  H  H10  2  0.43019700  0.00000000  0.80192200  1.0
  H  H11  2  0.45202900  0.00000000  0.52517000  1.0
