# generated using pymatgen
data_Ba2H15
_symmetry_space_group_name_H-M   C2
_cell_length_a   4.91727434
_cell_length_b   3.98128557
_cell_length_c   6.72744034
_cell_angle_alpha   90.00000000
_cell_angle_beta   96.82075144
_cell_angle_gamma   90.00000000
_symmetry_Int_Tables_number   5
_chemical_formula_structural   Ba2H15
_chemical_formula_sum   'Ba4 H30'
_cell_volume   130.77146870
_cell_formula_units_Z   2
loop_
 _symmetry_equiv_pos_site_id
 _symmetry_equiv_pos_as_xyz
  1  'x, y, z'
  2  '-x, y, -z'
  3  'x+1/2, y+1/2, z'
  4  '-x+1/2, y+1/2, -z'
loop_
 _atom_site_type_symbol
 _atom_site_label
 _atom_site_symmetry_multiplicity
 _atom_site_fract_x
 _atom_site_fract_y
 _atom_site_fract_z
 _atom_site_occupancy
  Ba  Ba0  4  0.20146750  0.13821650  0.25704950  1.0
  H  H1  4  0.07575500  0.90316500  0.97086950  1.0
  H  H2  4  0.07641050  0.37440850  0.97076650  1.0
  H  H3  4  0.10797950  0.63914850  0.16470950  1.0
  H  H4  4  0.15999900  0.17667600  0.58147450  1.0
  H  H5  4  0.18164900  0.61583400  0.39640850  1.0
  H  H6  4  0.24661550  0.13808950  0.89580750  1.0
  H  H7  2  0.00000000  0.42289850  0.50000000  1.0
  H  H8  2  0.00000000  0.73293850  0.50000000  1.0
  H  H9  2  0.00000000  0.93288600  0.50000000  1.0
