# generated using pymatgen
data_BaH23
_symmetry_space_group_name_H-M   P-1
_cell_length_a   3.71919089
_cell_length_b   4.38796939
_cell_length_c   4.46294033
_cell_angle_alpha   97.19509356
_cell_angle_beta   111.97836495
_cell_angle_gamma   91.55252702
_symmetry_Int_Tables_number   2
_chemical_formula_structural   BaH23
_chemical_formula_sum   'Ba1 H23'
_cell_volume   66.79187369
_cell_formula_units_Z   1
loop_
 _symmetry_equiv_pos_site_id
 _symmetry_equiv_pos_as_xyz
  1  'x, y, z'
  2  '-x, -y, -z'
loop_
 _atom_site_type_symbol
 _atom_site_label
 _atom_site_symmetry_multiplicity
 _atom_site_fract_x
 _atom_site_fract_y
 _atom_site_fract_z
 _atom_site_occupancy
  Ba  Ba0  1  0.50000000  0.50000000  0.50000000  1.0
  H  H1  2  0.05049200  0.24839100  0.60970700  1.0
  H  H2  2  0.08363700  0.36902800  0.76534900  1.0
  H  H3  2  0.10570000  0.74941300  0.74907900  1.0
  H  H4  2  0.11505200  0.13447500  0.03775200  1.0
  H  H5  2  0.18669100  0.99269600  0.36082100  1.0
  H  H6  2  0.23144300  0.77164300  0.11176100  1.0
  H  H7  2  0.29074400  0.86874800  0.79683400  1.0
  H  H8  2  0.29629400  0.02366200  0.54945100  1.0
  H  H9  2  0.32493500  0.14107200  0.02465100  1.0
  H  H10  2  0.38831900  0.48411900  0.97587300  1.0
  H  H11  2  0.44963100  0.85107500  0.16525000  1.0
  H  H12  1  0.00000000  0.50000000  0.00000000  1.0
