# generated using pymatgen
data_Ba2H11
_symmetry_space_group_name_H-M   Cm
_cell_length_a   13.65618388
_cell_length_b   2.93434808
_cell_length_c   2.90474450
_cell_angle_alpha   90.00000000
_cell_angle_beta   102.14646845
_cell_angle_gamma   90.00000000
_symmetry_Int_Tables_number   8
_chemical_formula_structural   Ba2H11
_chemical_formula_sum   'Ba4 H22'
_cell_volume   113.79307959
_cell_formula_units_Z   2
loop_
 _symmetry_equiv_pos_site_id
 _symmetry_equiv_pos_as_xyz
  1  'x, y, z'
  2  'x, -y, z'
  3  'x+1/2, y+1/2, z'
  4  'x+1/2, -y+1/2, z'
loop_
 _atom_site_type_symbol
 _atom_site_label
 _atom_site_symmetry_multiplicity
 _atom_site_fract_x
 _atom_site_fract_y
 _atom_site_fract_z
 _atom_site_occupancy
  Ba  Ba0  2  0.114746  0.000000  0.041911  1.0
  Ba  Ba1  2  0.373205  0.000000  0.283131  1.0
  H  H2  4  0.243865  0.141125  0.661208  1.0
  H  H3  2  0.036485  0.500000  0.466181  1.0
  H  H4  2  0.171570  0.500000  0.597819  1.0
  H  H5  2  0.242937  0.500000  0.022137  1.0
  H  H6  2  0.244274  0.500000  0.304573  1.0
  H  H7  2  0.316385  0.500000  0.729054  1.0
  H  H8  2  0.449986  0.500000  0.915990  1.0
  H  H9  2  0.471426  0.500000  0.639747  1.0
  H  H10  2  0.495182  0.500000  0.375965  1.0
  H  H11  2  0.497197  0.000000  0.907253  1.0
