# generated using pymatgen
data_BaH9
_symmetry_space_group_name_H-M   P1
_cell_length_a   3.93212553
_cell_length_b   3.95133957
_cell_length_c   5.68790081
_cell_angle_alpha   78.92356537
_cell_angle_beta   79.00705192
_cell_angle_gamma   65.39201676
_symmetry_Int_Tables_number   1
_chemical_formula_structural   BaH9
_chemical_formula_sum   'Ba2 H18'
_cell_volume   78.24171584
_cell_formula_units_Z   2
loop_
 _symmetry_equiv_pos_site_id
 _symmetry_equiv_pos_as_xyz
  1  'x, y, z'
loop_
 _atom_site_type_symbol
 _atom_site_label
 _atom_site_symmetry_multiplicity
 _atom_site_fract_x
 _atom_site_fract_y
 _atom_site_fract_z
 _atom_site_occupancy
  Ba  Ba0  1  0.28924300  0.34505300  0.56012800  1.0
  Ba  Ba1  1  0.70416300  0.74339900  0.99522500  1.0
  H  H2  1  0.02697100  0.25322400  0.24254700  1.0
  H  H3  1  0.09006100  0.04776500  0.91357900  1.0
  H  H4  1  0.10420200  0.75032200  0.21765500  1.0
  H  H5  1  0.13921300  0.17732900  0.10855400  1.0
  H  H6  1  0.19367800  0.86957300  0.82290300  1.0
  H  H7  1  0.23257700  0.91523000  0.38003900  1.0
  H  H8  1  0.23405100  0.58682700  0.13046400  1.0
  H  H9  1  0.34579900  0.43540300  0.92799200  1.0
  H  H10  1  0.45304700  0.81298700  0.36837900  1.0
  H  H11  1  0.54119700  0.27381200  0.14099900  1.0
  H  H12  1  0.54743200  0.69414800  0.65854300  1.0
  H  H13  1  0.68902700  0.73882600  0.53969000  1.0
  H  H14  1  0.70232300  0.15478200  0.22484700  1.0
  H  H15  1  0.72802800  0.29588600  0.81158700  1.0
  H  H16  1  0.80481200  0.40956300  0.37628500  1.0
  H  H17  1  0.83194200  0.15108000  0.69032000  1.0
  H  H18  1  0.84471900  0.88371200  0.38179200  1.0
  H  H19  1  0.99201500  0.93263600  0.62074900  1.0
