# generated using pymatgen
data_BaH9
_symmetry_space_group_name_H-M   P-1
_cell_length_a   3.81418231
_cell_length_b   3.88515101
_cell_length_c   5.59115307
_cell_angle_alpha   97.10881405
_cell_angle_beta   93.81351630
_cell_angle_gamma   118.05302715
_symmetry_Int_Tables_number   2
_chemical_formula_structural   BaH9
_chemical_formula_sum   'Ba2 H18'
_cell_volume   71.81768896
_cell_formula_units_Z   2
loop_
 _symmetry_equiv_pos_site_id
 _symmetry_equiv_pos_as_xyz
  1  'x, y, z'
  2  '-x, -y, -z'
loop_
 _atom_site_type_symbol
 _atom_site_label
 _atom_site_symmetry_multiplicity
 _atom_site_fract_x
 _atom_site_fract_y
 _atom_site_fract_z
 _atom_site_occupancy
  Ba  Ba0  2  0.04173850  0.81943700  0.70703450  1.0
  H  H1  2  0.04064150  0.68918000  0.13138650  1.0
  H  H2  2  0.17329150  0.40755500  0.95183050  1.0
  H  H3  2  0.32230850  0.84227100  0.35983850  1.0
  H  H4  2  0.36078650  0.00440600  0.12410050  1.0
  H  H5  2  0.38372650  0.52242000  0.62089650  1.0
  H  H6  2  0.43135750  0.63169700  0.11838750  1.0
  H  H7  2  0.43191550  0.44802900  0.76347350  1.0
  H  H8  2  0.43365850  0.19306600  0.05411750  1.0
  H  H9  2  0.46020850  0.76083200  0.47657950  1.0
