# generated using pymatgen
data_BaH23
_symmetry_space_group_name_H-M   Cm
_cell_length_a   6.04094625
_cell_length_b   7.28258301
_cell_length_c   4.24785935
_cell_angle_alpha   90.00000000
_cell_angle_beta   135.29171333
_cell_angle_gamma   90.00000000
_symmetry_Int_Tables_number   8
_chemical_formula_structural   BaH23
_chemical_formula_sum   'Ba2 H46'
_cell_volume   131.46892192
_cell_formula_units_Z   2
loop_
 _symmetry_equiv_pos_site_id
 _symmetry_equiv_pos_as_xyz
  1  'x, y, z'
  2  'x, -y, z'
  3  'x+1/2, y+1/2, z'
  4  'x+1/2, -y+1/2, z'
loop_
 _atom_site_type_symbol
 _atom_site_label
 _atom_site_symmetry_multiplicity
 _atom_site_fract_x
 _atom_site_fract_y
 _atom_site_fract_z
 _atom_site_occupancy
  Ba  Ba0  2  0.07003600  0.00000000  0.08064100  1.0
  H  H1  4  0.05531100  0.45006900  0.32985700  1.0
  H  H2  4  0.07035050  0.42963950  0.74328500  1.0
  H  H3  4  0.08307200  0.30960700  0.09263800  1.0
  H  H4  4  0.08914900  0.34270100  0.63391500  1.0
  H  H5  4  0.14191000  0.12690400  0.65707000  1.0
  H  H6  4  0.24841500  0.25598800  0.56066400  1.0
  H  H7  4  0.28053000  0.23472600  0.99858500  1.0
  H  H8  4  0.35277400  0.44444100  0.34718000  1.0
  H  H9  4  0.38217500  0.28242600  0.55957600  1.0
  H  H10  4  0.41494950  0.25577150  0.25588000  1.0
  H  H11  4  0.49508000  0.10692200  0.93871700  1.0
  H  H12  2  0.22811800  0.00000000  0.73917500  1.0
