# generated using pymatgen
data_Ba2H11
_symmetry_space_group_name_H-M   Cm
_cell_length_a   7.28449479
_cell_length_b   3.11130876
_cell_length_c   5.99198684
_cell_angle_alpha   90.00000000
_cell_angle_beta   114.78632093
_cell_angle_gamma   90.00000000
_symmetry_Int_Tables_number   8
_chemical_formula_structural   Ba2H11
_chemical_formula_sum   'Ba4 H22'
_cell_volume   123.29364656
_cell_formula_units_Z   2
loop_
 _symmetry_equiv_pos_site_id
 _symmetry_equiv_pos_as_xyz
  1  'x, y, z'
  2  'x, -y, z'
  3  'x+1/2, y+1/2, z'
  4  'x+1/2, -y+1/2, z'
loop_
 _atom_site_type_symbol
 _atom_site_label
 _atom_site_symmetry_multiplicity
 _atom_site_fract_x
 _atom_site_fract_y
 _atom_site_fract_z
 _atom_site_occupancy
  Ba  Ba0  2  0.12108450  0.00000000  0.25202100  1.0
  Ba  Ba1  2  0.14052100  0.00000000  0.76949600  1.0
  H  H2  2  0.27118800  0.50000000  0.08180700  1.0
  H  H3  2  0.28162400  0.50000000  0.61693600  1.0
  H  H4  2  0.32942000  0.50000000  0.48604200  1.0
  H  H5  2  0.36483900  0.50000000  0.35520500  1.0
  H  H6  2  0.37330550  0.50000000  0.87065200  1.0
  H  H7  2  0.38436800  0.00000000  0.12486900  1.0
  H  H8  2  0.38774700  0.00000000  0.61545100  1.0
  H  H9  2  0.42867300  0.00000000  0.29308800  1.0
  H  H10  2  0.43317500  0.00000000  0.78080800  1.0
  H  H11  2  0.49403850  0.00000000  0.95834700  1.0
  H  H12  2  0.49818200  0.00000000  0.46520400  1.0
