# generated using pymatgen
data_BaH15
_symmetry_space_group_name_H-M   P1
_cell_length_a   3.07262003
_cell_length_b   3.89628373
_cell_length_c   4.46061694
_cell_angle_alpha   102.12575795
_cell_angle_beta   93.34937759
_cell_angle_gamma   109.30115062
_symmetry_Int_Tables_number   1
_chemical_formula_structural   BaH15
_chemical_formula_sum   'Ba1 H15'
_cell_volume   48.80033533
_cell_formula_units_Z   1
loop_
 _symmetry_equiv_pos_site_id
 _symmetry_equiv_pos_as_xyz
  1  'x, y, z'
loop_
 _atom_site_type_symbol
 _atom_site_label
 _atom_site_symmetry_multiplicity
 _atom_site_fract_x
 _atom_site_fract_y
 _atom_site_fract_z
 _atom_site_occupancy
  Ba  Ba0  1  0.41799800  0.79315400  0.08552000  1.0
  H  H1  1  0.01168600  0.89505400  0.46022600  1.0
  H  H2  1  0.08047500  0.10712000  0.39746600  1.0
  H  H3  1  0.10857700  0.23497000  0.18770000  1.0
  H  H4  1  0.13232000  0.16889000  0.89041600  1.0
  H  H5  1  0.20085800  0.23518500  0.73578200  1.0
  H  H6  1  0.20632100  0.46054500  0.57481500  1.0
  H  H7  1  0.24133800  0.66115800  0.54390200  1.0
  H  H8  1  0.57750800  0.95781300  0.62786800  1.0
  H  H9  1  0.59000000  0.35458800  0.42258400  1.0
  H  H10  1  0.63923700  0.15562800  0.58202700  1.0
  H  H11  1  0.71789200  0.34717500  0.87507700  1.0
  H  H12  1  0.76134300  0.35444700  0.05338300  1.0
  H  H13  1  0.76437300  0.57474500  0.71377900  1.0
  H  H14  1  0.76629000  0.49173200  0.33920800  1.0
  H  H15  1  0.86473000  0.79194300  0.69868200  1.0
