# generated using pymatgen
data_Ba2H21
_symmetry_space_group_name_H-M   P1
_cell_length_a   3.84541965
_cell_length_b   4.50151248
_cell_length_c   5.29551340
_cell_angle_alpha   94.76159270
_cell_angle_beta   104.42666141
_cell_angle_gamma   114.98602786
_symmetry_Int_Tables_number   1
_chemical_formula_structural   Ba2H21
_chemical_formula_sum   'Ba2 H21'
_cell_volume   78.59547607
_cell_formula_units_Z   1
loop_
 _symmetry_equiv_pos_site_id
 _symmetry_equiv_pos_as_xyz
  1  'x, y, z'
loop_
 _atom_site_type_symbol
 _atom_site_label
 _atom_site_symmetry_multiplicity
 _atom_site_fract_x
 _atom_site_fract_y
 _atom_site_fract_z
 _atom_site_occupancy
  Ba  Ba0  1  0.51068600  0.17191300  0.80207500  1.0
  Ba  Ba1  1  0.53024600  0.85940700  0.26549200  1.0
  H  H2  1  0.00437800  0.32274200  0.58642600  1.0
  H  H3  1  0.01880400  0.01672400  0.02869500  1.0
  H  H4  1  0.03330300  0.34567900  0.18205300  1.0
  H  H5  1  0.03388700  0.75898700  0.47018600  1.0
  H  H6  1  0.04723100  0.67880000  0.86490300  1.0
  H  H7  1  0.05719500  0.37980500  0.34188400  1.0
  H  H8  1  0.10045200  0.37016000  0.77836100  1.0
  H  H9  1  0.10423400  0.61707700  0.50240900  1.0
  H  H10  1  0.13365000  0.07882800  0.23458800  1.0
  H  H11  1  0.17117300  0.39239900  0.96050700  1.0
  H  H12  1  0.17811600  0.08956500  0.40252900  1.0
  H  H13  1  0.47338300  0.63448300  0.69641600  1.0
  H  H14  1  0.51471700  0.33987400  0.20210900  1.0
  H  H15  1  0.52089400  0.68663500  0.85946700  1.0
  H  H16  1  0.55264200  0.51504700  0.53352800  1.0
  H  H17  1  0.57489700  0.40379500  0.38205500  1.0
  H  H18  1  0.85133800  0.58039000  0.17593200  1.0
  H  H19  1  0.85978700  0.92730900  0.65898000  1.0
  H  H20  1  0.88645200  0.69427400  0.07177300  1.0
  H  H21  1  0.91469800  0.96154600  0.82744800  1.0
  H  H22  1  0.93708800  0.63739600  0.71105500  1.0
