# generated using pymatgen
data_Ba2H21
_symmetry_space_group_name_H-M   P1
_cell_length_a   4.02268759
_cell_length_b   4.48232714
_cell_length_c   4.74096587
_cell_angle_alpha   69.45411995
_cell_angle_beta   81.40098254
_cell_angle_gamma   75.01571232
_symmetry_Int_Tables_number   1
_chemical_formula_structural   Ba2H21
_chemical_formula_sum   'Ba2 H21'
_cell_volume   77.16156048
_cell_formula_units_Z   1
loop_
 _symmetry_equiv_pos_site_id
 _symmetry_equiv_pos_as_xyz
  1  'x, y, z'
loop_
 _atom_site_type_symbol
 _atom_site_label
 _atom_site_symmetry_multiplicity
 _atom_site_fract_x
 _atom_site_fract_y
 _atom_site_fract_z
 _atom_site_occupancy
  Ba  Ba0  1  0.01818800  0.74198100  0.70934300  1.0
  Ba  Ba1  1  0.66284700  0.07017700  0.12956500  1.0
  H  H2  1  0.02055900  0.23414100  0.71100600  1.0
  H  H3  1  0.11352500  0.27437300  0.06763500  1.0
  H  H4  1  0.11643700  0.17296700  0.30805900  1.0
  H  H5  1  0.13154100  0.20905700  0.89107400  1.0
  H  H6  1  0.22493400  0.82449400  0.22570200  1.0
  H  H7  1  0.23295000  0.89286300  0.04085800  1.0
  H  H8  1  0.23726100  0.16678100  0.45718000  1.0
  H  H9  1  0.25232600  0.48158000  0.18756400  1.0
  H  H10  1  0.35340400  0.37367500  0.54186600  1.0
  H  H11  1  0.39477400  0.55251400  0.06591300  1.0
  H  H12  1  0.41297200  0.32685700  0.71041200  1.0
  H  H13  1  0.45339400  0.99919300  0.62775100  1.0
  H  H14  1  0.45873700  0.90640300  0.81158200  1.0
  H  H15  1  0.45979000  0.63941500  0.39409700  1.0
  H  H16  1  0.57286300  0.52856300  0.77196000  1.0
  H  H17  1  0.57526200  0.63466900  0.54933400  1.0
  H  H18  1  0.67432300  0.57664200  0.11240500  1.0
  H  H19  1  0.71022000  0.24962300  0.46479300  1.0
  H  H20  1  0.81975400  0.29000000  0.57472900  1.0
  H  H21  1  0.85288400  0.53574600  0.23373200  1.0
  H  H22  1  0.99889700  0.56886600  0.35130200  1.0
