# generated using pymatgen
data_BaH10
_symmetry_space_group_name_H-M   Pmmn
_cell_length_a   3.03284945
_cell_length_b   4.48753603
_cell_length_c   5.76727506
_cell_angle_alpha   90.00000000
_cell_angle_beta   90.00000000
_cell_angle_gamma   90.00000000
_symmetry_Int_Tables_number   59
_chemical_formula_structural   BaH10
_chemical_formula_sum   'Ba2 H20'
_cell_volume   78.49273574
_cell_formula_units_Z   2
loop_
 _symmetry_equiv_pos_site_id
 _symmetry_equiv_pos_as_xyz
  1  'x, y, z'
  2  '-x, -y, z'
  3  'x+1/2, -y+1/2, -z'
  4  '-x+1/2, y+1/2, -z'
  5  '-x+1/2, -y+1/2, -z'
  6  'x+1/2, y+1/2, -z'
  7  '-x, y, z'
  8  'x, -y, z'
loop_
 _atom_site_type_symbol
 _atom_site_label
 _atom_site_symmetry_multiplicity
 _atom_site_fract_x
 _atom_site_fract_y
 _atom_site_fract_z
 _atom_site_occupancy
  Ba  Ba0  2  0.00000000  0.50000000  0.74415900  1.0
  H  H1  4  0.00000000  0.09173600  0.52817400  1.0
  H  H2  4  0.00000000  0.26584500  0.06313300  1.0
  H  H3  4  0.00000000  0.33086700  0.37843400  1.0
  H  H4  4  0.00000000  0.34394100  0.20498600  1.0
  H  H5  2  0.00000000  0.00000000  0.77612400  1.0
  H  H6  2  0.00000000  0.00000000  0.91155900  1.0
