# generated using pymatgen
data_Ba2H11
_symmetry_space_group_name_H-M   P1
_cell_length_a   2.89051096
_cell_length_b   3.86810245
_cell_length_c   5.74091018
_cell_angle_alpha   94.36834681
_cell_angle_beta   104.48389328
_cell_angle_gamma   111.74298224
_symmetry_Int_Tables_number   1
_chemical_formula_structural   Ba2H11
_chemical_formula_sum   'Ba2 H11'
_cell_volume   56.70020944
_cell_formula_units_Z   1
loop_
 _symmetry_equiv_pos_site_id
 _symmetry_equiv_pos_as_xyz
  1  'x, y, z'
loop_
 _atom_site_type_symbol
 _atom_site_label
 _atom_site_symmetry_multiplicity
 _atom_site_fract_x
 _atom_site_fract_y
 _atom_site_fract_z
 _atom_site_occupancy
  Ba  Ba0  1  0.20636000  0.03116400  0.33716200  1.0
  Ba  Ba1  1  0.67641300  0.52996500  0.82175300  1.0
  H  H2  1  0.01196700  0.50406500  0.50293600  1.0
  H  H3  1  0.07793900  0.97582500  0.67945500  1.0
  H  H4  1  0.09209300  0.47979600  0.18173900  1.0
  H  H5  1  0.10713200  0.14666500  0.96467900  1.0
  H  H6  1  0.34830700  0.90511600  0.69868100  1.0
  H  H7  1  0.42100200  0.57578600  0.15467300  1.0
  H  H8  1  0.46329200  0.97277400  0.01403900  1.0
  H  H9  1  0.57205900  0.64107000  0.45711100  1.0
  H  H10  1  0.78151100  0.41936400  0.20773100  1.0
  H  H11  1  0.78306200  0.07968200  0.98459700  1.0
  H  H12  1  0.84003000  0.08333500  0.64909700  1.0
