# generated using pymatgen
data_BaH23
_symmetry_space_group_name_H-M   P1
_cell_length_a   3.72438867
_cell_length_b   4.30151385
_cell_length_c   4.49406731
_cell_angle_alpha   97.52885020
_cell_angle_beta   114.29450166
_cell_angle_gamma   90.44879958
_symmetry_Int_Tables_number   1
_chemical_formula_structural   BaH23
_chemical_formula_sum   'Ba1 H23'
_cell_volume   64.90360783
_cell_formula_units_Z   1
loop_
 _symmetry_equiv_pos_site_id
 _symmetry_equiv_pos_as_xyz
  1  'x, y, z'
loop_
 _atom_site_type_symbol
 _atom_site_label
 _atom_site_symmetry_multiplicity
 _atom_site_fract_x
 _atom_site_fract_y
 _atom_site_fract_z
 _atom_site_occupancy
  Ba  Ba0  1  0.85288300  0.30092000  0.30617800  1.0
  H  H1  1  0.00206500  0.01346500  0.69067400  1.0
  H  H2  1  0.08232700  0.81871900  0.31810600  1.0
  H  H3  1  0.14239500  0.93694800  0.60928700  1.0
  H  H4  1  0.14282600  0.66493900  0.77686300  1.0
  H  H5  1  0.16394800  0.68369200  0.18473000  1.0
  H  H6  1  0.21440900  0.06227800  0.06628400  1.0
  H  H7  1  0.27490200  0.50374200  0.14520200  1.0
  H  H8  1  0.28352700  0.37220200  0.88027000  1.0
  H  H9  1  0.34146100  0.93673300  0.02156200  1.0
  H  H10  1  0.35890800  0.66627700  0.59935300  1.0
  H  H11  1  0.38872500  0.26170500  0.79118200  1.0
  H  H12  1  0.40499100  0.02581800  0.42957900  1.0
  H  H13  1  0.46843500  0.18933500  0.53716300  1.0
  H  H14  1  0.47455600  0.53478400  0.54449400  1.0
  H  H15  1  0.53520800  0.65794700  0.98287100  1.0
  H  H16  1  0.53957700  0.96444600  0.82932900  1.0
  H  H17  1  0.64967800  0.78905700  0.28355700  1.0
  H  H18  1  0.66594400  0.81517600  0.46265900  1.0
  H  H19  1  0.73215700  0.63439700  0.95878300  1.0
  H  H20  1  0.75530300  0.93779300  0.83591300  1.0
  H  H21  1  0.78875500  0.39198400  0.80607100  1.0
  H  H22  1  0.90590400  0.23393200  0.81785600  1.0
  H  H23  1  0.92827400  0.67926000  0.77597400  1.0
