# generated using pymatgen
data_BaH20
_symmetry_space_group_name_H-M   P-1
_cell_length_a   4.05832860
_cell_length_b   4.20546597
_cell_length_c   4.52719185
_cell_angle_alpha   110.63229157
_cell_angle_beta   115.89372130
_cell_angle_gamma   95.70427152
_symmetry_Int_Tables_number   2
_chemical_formula_structural   BaH20
_chemical_formula_sum   'Ba1 H20'
_cell_volume   62.03756657
_cell_formula_units_Z   1
loop_
 _symmetry_equiv_pos_site_id
 _symmetry_equiv_pos_as_xyz
  1  'x, y, z'
  2  '-x, -y, -z'
loop_
 _atom_site_type_symbol
 _atom_site_label
 _atom_site_symmetry_multiplicity
 _atom_site_fract_x
 _atom_site_fract_y
 _atom_site_fract_z
 _atom_site_occupancy
  Ba  Ba0  1  0.000000  0.000000  0.000000  1.0
  H  H1  2  0.017158  0.430366  0.779039  1.0
  H  H2  2  0.100025  0.085275  0.563160  1.0
  H  H3  2  0.155458  0.673415  0.614243  1.0
  H  H4  2  0.198951  0.603585  0.246676  1.0
  H  H5  2  0.265448  0.358629  0.595191  1.0
  H  H6  2  0.339813  0.839915  0.731445  1.0
  H  H7  2  0.355928  0.609662  0.024125  1.0
  H  H8  2  0.427773  0.947074  0.513275  1.0
  H  H9  2  0.451096  0.436926  0.585414  1.0
  H  H10  2  0.473177  0.223180  0.913154  1.0
