# generated using pymatgen
data_BaH9
_symmetry_space_group_name_H-M   P1
_cell_length_a   3.79637625
_cell_length_b   3.83747904
_cell_length_c   5.69426571
_cell_angle_alpha   79.26624516
_cell_angle_beta   79.33248383
_cell_angle_gamma   67.67375809
_symmetry_Int_Tables_number   1
_chemical_formula_structural   BaH9
_chemical_formula_sum   'Ba2 H18'
_cell_volume   74.79628446
_cell_formula_units_Z   2
loop_
 _symmetry_equiv_pos_site_id
 _symmetry_equiv_pos_as_xyz
  1  'x, y, z'
loop_
 _atom_site_type_symbol
 _atom_site_label
 _atom_site_symmetry_multiplicity
 _atom_site_fract_x
 _atom_site_fract_y
 _atom_site_fract_z
 _atom_site_occupancy
  Ba  Ba0  1  0.26415100  0.36142300  0.56749900  1.0
  Ba  Ba1  1  0.64815900  0.77484700  0.00983200  1.0
  H  H2  1  0.02918200  0.11340100  0.07973800  1.0
  H  H3  1  0.08205300  0.73907800  0.23438300  1.0
  H  H4  1  0.13301700  0.22360800  0.22326100  1.0
  H  H5  1  0.18043200  0.83009200  0.78107200  1.0
  H  H6  1  0.24140100  0.93790700  0.34537100  1.0
  H  H7  1  0.27108200  0.40788200  0.08837800  1.0
  H  H8  1  0.30588100  0.45541300  0.93422400  1.0
  H  H9  1  0.43902000  0.83613600  0.41178000  1.0
  H  H10  1  0.61930500  0.19941100  0.22997800  1.0
  H  H11  1  0.62682100  0.76007900  0.60864000  1.0
  H  H12  1  0.65226200  0.53968100  0.69530700  1.0
  H  H13  1  0.73481800  0.56372100  0.39499200  1.0
  H  H14  1  0.73597800  0.28891600  0.79585700  1.0
  H  H15  1  0.78869500  0.00346600  0.30727800  1.0
  H  H16  1  0.84265000  0.35678400  0.35324700  1.0
  H  H17  1  0.87691400  0.99379300  0.52341400  1.0
  H  H18  1  0.99490800  0.14917100  0.93622300  1.0
  H  H19  1  0.99897200  0.94531000  0.66702600  1.0
