# generated using pymatgen
data_BaH10
_symmetry_space_group_name_H-M   P-1
_cell_length_a   4.02797039
_cell_length_b   4.44938888
_cell_length_c   4.52626185
_cell_angle_alpha   75.48779880
_cell_angle_beta   76.81286047
_cell_angle_gamma   75.90366152
_symmetry_Int_Tables_number   2
_chemical_formula_structural   BaH10
_chemical_formula_sum   'Ba2 H20'
_cell_volume   74.95084199
_cell_formula_units_Z   2
loop_
 _symmetry_equiv_pos_site_id
 _symmetry_equiv_pos_as_xyz
  1  'x, y, z'
  2  '-x, -y, -z'
loop_
 _atom_site_type_symbol
 _atom_site_label
 _atom_site_symmetry_multiplicity
 _atom_site_fract_x
 _atom_site_fract_y
 _atom_site_fract_z
 _atom_site_occupancy
  Ba  Ba0  2  0.39318950  0.29007050  0.78697150  1.0
  H  H1  2  0.02208350  0.30164450  0.23686450  1.0
  H  H2  2  0.03300250  0.89896750  0.32025950  1.0
  H  H3  2  0.06780450  0.98037750  0.13868050  1.0
  H  H4  2  0.07994250  0.53676350  0.42476750  1.0
  H  H5  2  0.11931850  0.75812850  0.60406150  1.0
  H  H6  2  0.15412250  0.54915850  0.14619650  1.0
  H  H7  2  0.21285950  0.73349650  0.95169250  1.0
  H  H8  2  0.24367650  0.02498250  0.49927850  1.0
  H  H9  2  0.33828650  0.15980350  0.35861750  1.0
  H  H10  2  0.38478850  0.79319050  0.78474350  1.0
