# generated using pymatgen
data_BaH21
_symmetry_space_group_name_H-M   P-1
_cell_length_a   4.09993536
_cell_length_b   4.30767236
_cell_length_c   4.33262506
_cell_angle_alpha   68.84635106
_cell_angle_beta   62.32859316
_cell_angle_gamma   64.88063068
_symmetry_Int_Tables_number   2
_chemical_formula_structural   BaH21
_chemical_formula_sum   'Ba1 H21'
_cell_volume   60.06564612
_cell_formula_units_Z   1
loop_
 _symmetry_equiv_pos_site_id
 _symmetry_equiv_pos_as_xyz
  1  'x, y, z'
  2  '-x, -y, -z'
loop_
 _atom_site_type_symbol
 _atom_site_label
 _atom_site_symmetry_multiplicity
 _atom_site_fract_x
 _atom_site_fract_y
 _atom_site_fract_z
 _atom_site_occupancy
  Ba  Ba0  1  0.50000000  0.50000000  0.00000000  1.0
  H  H1  2  0.01867900  0.17364900  0.59149100  1.0
  H  H2  2  0.01894300  0.69480800  0.82887200  1.0
  H  H3  2  0.04434600  0.35509900  0.49362900  1.0
  H  H4  2  0.08046900  0.04340600  0.91851900  1.0
  H  H5  2  0.16040500  0.80163000  0.67134000  1.0
  H  H6  2  0.17198100  0.29518400  0.86467300  1.0
  H  H7  2  0.26634900  0.91820500  0.33546800  1.0
  H  H8  2  0.32146200  0.36334300  0.64401300  1.0
  H  H9  2  0.36661100  0.00440200  0.14010000  1.0
  H  H10  2  0.40790700  0.98011700  0.57321200  1.0
  H  H11  1  0.50000000  0.50000000  0.50000000  1.0
