# generated using pymatgen
data_BaH17
_symmetry_space_group_name_H-M   Cm
_cell_length_a   4.18926502
_cell_length_b   6.06000904
_cell_length_c   4.49335307
_cell_angle_alpha   90.00000000
_cell_angle_beta   113.87799609
_cell_angle_gamma   90.00000000
_symmetry_Int_Tables_number   8
_chemical_formula_structural   BaH17
_chemical_formula_sum   'Ba2 H34'
_cell_volume   104.30914173
_cell_formula_units_Z   2
loop_
 _symmetry_equiv_pos_site_id
 _symmetry_equiv_pos_as_xyz
  1  'x, y, z'
  2  'x, -y, z'
  3  'x+1/2, y+1/2, z'
  4  'x+1/2, -y+1/2, z'
loop_
 _atom_site_type_symbol
 _atom_site_label
 _atom_site_symmetry_multiplicity
 _atom_site_fract_x
 _atom_site_fract_y
 _atom_site_fract_z
 _atom_site_occupancy
  Ba  Ba0  2  0.11459100  0.50000000  0.42307400  1.0
  H  H1  4  0.03363100  0.22994700  0.70935600  1.0
  H  H2  4  0.08261350  0.13869450  0.29024900  1.0
  H  H3  4  0.12726050  0.13337850  0.48372200  1.0
  H  H4  4  0.20837050  0.23626950  0.10977100  1.0
  H  H5  4  0.35087200  0.24556400  0.03099900  1.0
  H  H6  4  0.39118400  0.23611400  0.77645000  1.0
  H  H7  2  0.00614900  0.00000000  0.01830500  1.0
  H  H8  2  0.01038200  0.50000000  0.89323000  1.0
  H  H9  2  0.12371200  0.00000000  0.90042700  1.0
  H  H10  2  0.20332050  0.00000000  0.72158800  1.0
  H  H11  2  0.21654800  0.50000000  0.96477100  1.0
