# generated using pymatgen
data_Ba2H21
_symmetry_space_group_name_H-M   P-1
_cell_length_a   3.97426032
_cell_length_b   3.99695766
_cell_length_c   5.30270605
_cell_angle_alpha   78.10312113
_cell_angle_beta   89.62951969
_cell_angle_gamma   89.05202334
_symmetry_Int_Tables_number   2
_chemical_formula_structural   Ba2H21
_chemical_formula_sum   'Ba2 H21'
_cell_volume   82.41222701
_cell_formula_units_Z   1
loop_
 _symmetry_equiv_pos_site_id
 _symmetry_equiv_pos_as_xyz
  1  'x, y, z'
  2  '-x, -y, -z'
loop_
 _atom_site_type_symbol
 _atom_site_label
 _atom_site_symmetry_multiplicity
 _atom_site_fract_x
 _atom_site_fract_y
 _atom_site_fract_z
 _atom_site_occupancy
  Ba  Ba0  2  0.08368400  0.19691450  0.73387850  1.0
  H  H1  2  0.11796800  0.34257150  0.13985550  1.0
  H  H2  2  0.15373000  0.29532050  0.29620150  1.0
  H  H3  2  0.26542300  0.61095950  0.97395550  1.0
  H  H4  2  0.27416800  0.73194150  0.60824750  1.0
  H  H5  2  0.30809000  0.68239550  0.77042550  1.0
  H  H6  2  0.40011800  0.97869450  0.43369650  1.0
  H  H7  2  0.41426500  0.06668750  0.07524550  1.0
  H  H8  2  0.41520600  0.04816550  0.24139950  1.0
  H  H9  2  0.41554000  0.55732150  0.31354950  1.0
  H  H10  2  0.41810000  0.62226250  0.12482250  1.0
  H  H11  1  0.50000000  0.50000000  0.50000000  1.0
