# generated using pymatgen
data_BaH20
_symmetry_space_group_name_H-M   P-1
_cell_length_a   4.05832860
_cell_length_b   4.20546597
_cell_length_c   4.52719185
_cell_angle_alpha   110.63229157
_cell_angle_beta   115.89372130
_cell_angle_gamma   95.70427152
_symmetry_Int_Tables_number   2
_chemical_formula_structural   BaH20
_chemical_formula_sum   'Ba1 H20'
_cell_volume   62.03756657
_cell_formula_units_Z   1
loop_
 _symmetry_equiv_pos_site_id
 _symmetry_equiv_pos_as_xyz
  1  'x, y, z'
  2  '-x, -y, -z'
loop_
 _atom_site_type_symbol
 _atom_site_label
 _atom_site_symmetry_multiplicity
 _atom_site_fract_x
 _atom_site_fract_y
 _atom_site_fract_z
 _atom_site_occupancy
  Ba  Ba0  1  0.00000000  0.00000000  0.00000000  1.0
  H  H1  2  0.01715800  0.43036600  0.77903900  1.0
  H  H2  2  0.10002500  0.08527500  0.56316000  1.0
  H  H3  2  0.15545800  0.67341500  0.61424300  1.0
  H  H4  2  0.19895100  0.60358500  0.24667600  1.0
  H  H5  2  0.26544800  0.35862900  0.59519100  1.0
  H  H6  2  0.33981300  0.83991500  0.73144500  1.0
  H  H7  2  0.35592800  0.60966200  0.02412500  1.0
  H  H8  2  0.42777300  0.94707400  0.51327500  1.0
  H  H9  2  0.45109600  0.43692600  0.58541400  1.0
  H  H10  2  0.47317700  0.22318000  0.91315400  1.0
