# generated using pymatgen
data_BaH11
_symmetry_space_group_name_H-M   Pmn2_1
_cell_length_a   3.30129522
_cell_length_b   5.78746727
_cell_length_c   4.23929265
_cell_angle_alpha   90.00000000
_cell_angle_beta   90.00000000
_cell_angle_gamma   90.00000000
_symmetry_Int_Tables_number   31
_chemical_formula_structural   BaH11
_chemical_formula_sum   'Ba2 H22'
_cell_volume   80.99651065
_cell_formula_units_Z   2
loop_
 _symmetry_equiv_pos_site_id
 _symmetry_equiv_pos_as_xyz
  1  'x, y, z'
  2  '-x+1/2, -y, z+1/2'
  3  '-x, y, z'
  4  'x+1/2, -y, z+1/2'
loop_
 _atom_site_type_symbol
 _atom_site_label
 _atom_site_symmetry_multiplicity
 _atom_site_fract_x
 _atom_site_fract_y
 _atom_site_fract_z
 _atom_site_occupancy
  Ba  Ba0  2  0.00000000  0.73842000  0.46429400  1.0
  H  H1  4  0.21455100  0.33540700  0.46092900  1.0
  H  H2  4  0.22895700  0.80638700  0.96904900  1.0
  H  H3  2  0.00000000  0.01640900  0.82347400  1.0
  H  H4  2  0.00000000  0.01921500  0.11388900  1.0
  H  H5  2  0.00000000  0.09409100  0.66212500  1.0
  H  H6  2  0.00000000  0.09829900  0.27413400  1.0
  H  H7  2  0.00000000  0.43046600  0.72723600  1.0
  H  H8  2  0.00000000  0.43351200  0.19495400  1.0
  H  H9  2  0.00000000  0.50190500  0.91555800  1.0
