# generated using pymatgen
data_Ba2H11
_symmetry_space_group_name_H-M   P-1
_cell_length_a   3.79667959
_cell_length_b   3.87225838
_cell_length_c   4.21838898
_cell_angle_alpha   90.50941458
_cell_angle_beta   91.50943168
_cell_angle_gamma   114.11148076
_symmetry_Int_Tables_number   2
_chemical_formula_structural   Ba2H11
_chemical_formula_sum   'Ba2 H11'
_cell_volume   56.57393364
_cell_formula_units_Z   1
loop_
 _symmetry_equiv_pos_site_id
 _symmetry_equiv_pos_as_xyz
  1  'x, y, z'
  2  '-x, -y, -z'
loop_
 _atom_site_type_symbol
 _atom_site_label
 _atom_site_symmetry_multiplicity
 _atom_site_fract_x
 _atom_site_fract_y
 _atom_site_fract_z
 _atom_site_occupancy
  Ba  Ba0  1  0.000000  0.000000  0.000000  1.0
  Ba  Ba1  1  0.500000  0.500000  0.500000  1.0
  H  H2  2  0.008572  0.516772  0.276391  1.0
  H  H3  2  0.195292  0.586586  0.883468  1.0
  H  H4  2  0.196884  0.879088  0.504668  1.0
  H  H5  2  0.384479  0.672576  0.028741  1.0
  H  H6  2  0.498370  0.005140  0.724178  1.0
  H  H7  1  0.000000  0.000000  0.500000  1.0
