# generated using pymatgen
data_BaH19
_symmetry_space_group_name_H-M   P-1
_cell_length_a   3.95509997
_cell_length_b   4.07180373
_cell_length_c   4.28878619
_cell_angle_alpha   115.39848016
_cell_angle_beta   104.99206342
_cell_angle_gamma   101.70503420
_symmetry_Int_Tables_number   2
_chemical_formula_structural   BaH19
_chemical_formula_sum   'Ba1 H19'
_cell_volume   56.23621164
_cell_formula_units_Z   1
loop_
 _symmetry_equiv_pos_site_id
 _symmetry_equiv_pos_as_xyz
  1  'x, y, z'
  2  '-x, -y, -z'
loop_
 _atom_site_type_symbol
 _atom_site_label
 _atom_site_symmetry_multiplicity
 _atom_site_fract_x
 _atom_site_fract_y
 _atom_site_fract_z
 _atom_site_occupancy
  Ba  Ba0  1  0.00000000  0.00000000  0.00000000  1.0
  H  H1  2  0.06617400  0.61502600  0.36940600  1.0
  H  H2  2  0.14482800  0.16201300  0.61122200  1.0
  H  H3  2  0.19237700  0.65186000  0.23199500  1.0
  H  H4  2  0.31787200  0.58997800  0.01968400  1.0
  H  H5  2  0.34506400  0.22150100  0.61300000  1.0
  H  H6  2  0.40817900  0.88328100  0.73982800  1.0
  H  H7  2  0.40934500  0.66675200  0.90329800  1.0
  H  H8  2  0.45976700  0.47928500  0.57561000  1.0
  H  H9  2  0.47336900  0.94293900  0.62514800  1.0
  H  H10  1  0.00000000  0.50000000  0.50000000  1.0
