# generated using pymatgen
data_Ba2H17
_symmetry_space_group_name_H-M   P1
_cell_length_a   3.72989575
_cell_length_b   3.85819931
_cell_length_c   5.81381556
_cell_angle_alpha   87.94541944
_cell_angle_beta   89.68284248
_cell_angle_gamma   61.35544608
_symmetry_Int_Tables_number   1
_chemical_formula_structural   Ba2H17
_chemical_formula_sum   'Ba2 H17'
_cell_volume   73.37139745
_cell_formula_units_Z   1
loop_
 _symmetry_equiv_pos_site_id
 _symmetry_equiv_pos_as_xyz
  1  'x, y, z'
loop_
 _atom_site_type_symbol
 _atom_site_label
 _atom_site_symmetry_multiplicity
 _atom_site_fract_x
 _atom_site_fract_y
 _atom_site_fract_z
 _atom_site_occupancy
  Ba  Ba0  1  0.01005500  0.06467300  0.63886100  1.0
  Ba  Ba1  1  0.03289800  0.02095100  0.14182000  1.0
  H  H2  1  0.11485200  0.49726900  0.93568900  1.0
  H  H3  1  0.11664300  0.52647400  0.44168200  1.0
  H  H4  1  0.33852000  0.40363000  0.61976200  1.0
  H  H5  1  0.35707800  0.37128400  0.14032700  1.0
  H  H6  1  0.40874000  0.45864000  0.75222600  1.0
  H  H7  1  0.45538200  0.42570000  0.28986800  1.0
  H  H8  1  0.48599800  0.14076400  0.92484700  1.0
  H  H9  1  0.51461500  0.05286100  0.37932200  1.0
  H  H10  1  0.52401900  0.53947100  0.88887700  1.0
  H  H11  1  0.52943500  0.54524600  0.39747700  1.0
  H  H12  1  0.55651500  0.93789600  0.85941300  1.0
  H  H13  1  0.60499200  0.84834800  0.48002200  1.0
  H  H14  1  0.64764900  0.63616400  0.04305800  1.0
  H  H15  1  0.68440000  0.70698800  0.64052300  1.0
  H  H16  1  0.70649500  0.68365300  0.17157300  1.0
  H  H17  1  0.92450100  0.58673800  0.84600200  1.0
  H  H18  1  0.94995700  0.53540800  0.34963300  1.0
