# generated using pymatgen
data_BaH23
_symmetry_space_group_name_H-M   Cm
_cell_length_a   6.04094625
_cell_length_b   7.28258301
_cell_length_c   4.24785935
_cell_angle_alpha   90.00000000
_cell_angle_beta   135.29171333
_cell_angle_gamma   90.00000000
_symmetry_Int_Tables_number   8
_chemical_formula_structural   BaH23
_chemical_formula_sum   'Ba2 H46'
_cell_volume   131.46892192
_cell_formula_units_Z   2
loop_
 _symmetry_equiv_pos_site_id
 _symmetry_equiv_pos_as_xyz
  1  'x, y, z'
  2  'x, -y, z'
  3  'x+1/2, y+1/2, z'
  4  'x+1/2, -y+1/2, z'
loop_
 _atom_site_type_symbol
 _atom_site_label
 _atom_site_symmetry_multiplicity
 _atom_site_fract_x
 _atom_site_fract_y
 _atom_site_fract_z
 _atom_site_occupancy
  Ba  Ba0  2  0.070036  0.000000  0.080641  1.0
  H  H1  4  0.055311  0.450069  0.329857  1.0
  H  H2  4  0.070350  0.429639  0.743285  1.0
  H  H3  4  0.083072  0.309607  0.092638  1.0
  H  H4  4  0.089149  0.342701  0.633915  1.0
  H  H5  4  0.141910  0.126904  0.657070  1.0
  H  H6  4  0.248415  0.255988  0.560664  1.0
  H  H7  4  0.280530  0.234726  0.998585  1.0
  H  H8  4  0.352774  0.444441  0.347180  1.0
  H  H9  4  0.382175  0.282426  0.559576  1.0
  H  H10  4  0.414950  0.255771  0.255880  1.0
  H  H11  4  0.495080  0.106922  0.938717  1.0
  H  H12  2  0.228118  0.000000  0.739175  1.0
