# generated using pymatgen
data_BaH11
_symmetry_space_group_name_H-M   Cm
_cell_length_a   6.22673171
_cell_length_b   4.15428380
_cell_length_c   3.77603278
_cell_angle_alpha   90.00000000
_cell_angle_beta   119.81493859
_cell_angle_gamma   90.00000000
_symmetry_Int_Tables_number   8
_chemical_formula_structural   BaH11
_chemical_formula_sum   'Ba2 H22'
_cell_volume   84.74802001
_cell_formula_units_Z   2
loop_
 _symmetry_equiv_pos_site_id
 _symmetry_equiv_pos_as_xyz
  1  'x, y, z'
  2  'x, -y, z'
  3  'x+1/2, y+1/2, z'
  4  'x+1/2, -y+1/2, z'
loop_
 _atom_site_type_symbol
 _atom_site_label
 _atom_site_symmetry_multiplicity
 _atom_site_fract_x
 _atom_site_fract_y
 _atom_site_fract_z
 _atom_site_occupancy
  Ba  Ba0  2  0.482432  0.500000  0.521205  1.0
  H  H1  4  0.149736  0.229620  0.138938  1.0
  H  H2  4  0.289291  0.327059  0.874143  1.0
  H  H3  4  0.402519  0.199748  0.979968  1.0
  H  H4  2  0.032870  0.500000  0.828840  1.0
  H  H5  2  0.044854  0.500000  0.292526  1.0
  H  H6  2  0.135968  0.500000  0.545292  1.0
  H  H7  2  0.215107  0.000000  0.217800  1.0
  H  H8  2  0.391652  0.000000  0.616066  1.0
