# generated using pymatgen
data_Ba2H11
_symmetry_space_group_name_H-M   Cm
_cell_length_a   13.65618388
_cell_length_b   2.93434808
_cell_length_c   2.90474450
_cell_angle_alpha   90.00000000
_cell_angle_beta   102.14646845
_cell_angle_gamma   90.00000000
_symmetry_Int_Tables_number   8
_chemical_formula_structural   Ba2H11
_chemical_formula_sum   'Ba4 H22'
_cell_volume   113.79307959
_cell_formula_units_Z   2
loop_
 _symmetry_equiv_pos_site_id
 _symmetry_equiv_pos_as_xyz
  1  'x, y, z'
  2  'x, -y, z'
  3  'x+1/2, y+1/2, z'
  4  'x+1/2, -y+1/2, z'
loop_
 _atom_site_type_symbol
 _atom_site_label
 _atom_site_symmetry_multiplicity
 _atom_site_fract_x
 _atom_site_fract_y
 _atom_site_fract_z
 _atom_site_occupancy
  Ba  Ba0  2  0.11474600  0.00000000  0.04191100  1.0
  Ba  Ba1  2  0.37320450  0.00000000  0.28313100  1.0
  H  H2  4  0.24386450  0.14112450  0.66120800  1.0
  H  H3  2  0.03648500  0.50000000  0.46618100  1.0
  H  H4  2  0.17157000  0.50000000  0.59781900  1.0
  H  H5  2  0.24293700  0.50000000  0.02213700  1.0
  H  H6  2  0.24427350  0.50000000  0.30457300  1.0
  H  H7  2  0.31638500  0.50000000  0.72905400  1.0
  H  H8  2  0.44998550  0.50000000  0.91599000  1.0
  H  H9  2  0.47142600  0.50000000  0.63974700  1.0
  H  H10  2  0.49518200  0.50000000  0.37596500  1.0
  H  H11  2  0.49719650  0.00000000  0.90725300  1.0
