# generated using pymatgen
data_BaH21
_symmetry_space_group_name_H-M   P1
_cell_length_a   3.24827777
_cell_length_b   4.00130499
_cell_length_c   5.15621417
_cell_angle_alpha   95.02328952
_cell_angle_beta   103.11200649
_cell_angle_gamma   112.72138434
_symmetry_Int_Tables_number   1
_chemical_formula_structural   BaH21
_chemical_formula_sum   'Ba1 H21'
_cell_volume   59.04873071
_cell_formula_units_Z   1
loop_
 _symmetry_equiv_pos_site_id
 _symmetry_equiv_pos_as_xyz
  1  'x, y, z'
loop_
 _atom_site_type_symbol
 _atom_site_label
 _atom_site_symmetry_multiplicity
 _atom_site_fract_x
 _atom_site_fract_y
 _atom_site_fract_z
 _atom_site_occupancy
  Ba  Ba0  1  0.83799400  0.89307000  0.57571000  1.0
  H  H1  1  0.01855600  0.41755200  0.85683500  1.0
  H  H2  1  0.13064500  0.44991600  0.49113700  1.0
  H  H3  1  0.16745400  0.49087300  0.67694000  1.0
  H  H4  1  0.17469000  0.81752500  0.27501500  1.0
  H  H5  1  0.26123800  0.36535000  0.34957200  1.0
  H  H6  1  0.26652600  0.15655000  0.02999400  1.0
  H  H7  1  0.28438700  0.53209500  0.18095100  1.0
  H  H8  1  0.32018800  0.03146700  0.28581900  1.0
  H  H9  1  0.36566200  0.77975700  0.87465000  1.0
  H  H10  1  0.41259300  0.29553600  0.94798700  1.0
  H  H11  1  0.45329300  0.67653600  0.10904400  1.0
  H  H12  1  0.51652700  0.98842900  0.87664200  1.0
  H  H13  1  0.53440600  0.30171300  0.55519000  1.0
  H  H14  1  0.54296500  0.34190800  0.71349600  1.0
  H  H15  1  0.66924300  0.02162700  0.17464700  1.0
  H  H16  1  0.68891400  0.38271800  0.29901300  1.0
  H  H17  1  0.73349500  0.64574100  0.96802900  1.0
  H  H18  1  0.83806500  0.51442100  0.21539200  1.0
  H  H19  1  0.86684700  0.28993600  0.94640900  1.0
  H  H20  1  0.92202100  0.12241800  0.15890900  1.0
  H  H21  1  0.98083100  0.80444400  0.98630900  1.0
