# generated using pymatgen
data_BaH22
_symmetry_space_group_name_H-M   Cm
_cell_length_a   6.08600153
_cell_length_b   6.07190041
_cell_length_c   4.56279660
_cell_angle_alpha   90.00000000
_cell_angle_beta   128.71876864
_cell_angle_gamma   90.00000000
_symmetry_Int_Tables_number   8
_chemical_formula_structural   BaH22
_chemical_formula_sum   'Ba2 H44'
_cell_volume   131.55518670
_cell_formula_units_Z   2
loop_
 _symmetry_equiv_pos_site_id
 _symmetry_equiv_pos_as_xyz
  1  'x, y, z'
  2  'x, -y, z'
  3  'x+1/2, y+1/2, z'
  4  'x+1/2, -y+1/2, z'
loop_
 _atom_site_type_symbol
 _atom_site_label
 _atom_site_symmetry_multiplicity
 _atom_site_fract_x
 _atom_site_fract_y
 _atom_site_fract_z
 _atom_site_occupancy
  Ba  Ba0  2  0.14525200  0.00000000  0.01039300  1.0
  H  H1  4  0.00668700  0.37969300  0.95390100  1.0
  H  H2  4  0.05145200  0.29700500  0.27616300  1.0
  H  H3  4  0.17243350  0.37603650  0.04374800  1.0
  H  H4  4  0.22410500  0.34225800  0.77625800  1.0
  H  H5  4  0.27837900  0.23777400  0.74489400  1.0
  H  H6  4  0.35911750  0.29535150  0.47218300  1.0
  H  H7  4  0.42522250  0.17833250  0.55811900  1.0
  H  H8  4  0.46551300  0.30096900  0.25304100  1.0
  H  H9  2  0.01956900  0.50000000  0.60794400  1.0
  H  H10  2  0.10224500  0.00000000  0.47866100  1.0
  H  H11  2  0.15677250  0.50000000  0.46098800  1.0
  H  H12  2  0.25904350  0.50000000  0.40710500  1.0
  H  H13  2  0.26802200  0.00000000  0.61245300  1.0
  H  H14  2  0.34324500  0.50000000  0.16288000  1.0
