# generated using pymatgen
data_BaH14
_symmetry_space_group_name_H-M   C2/m
_cell_length_a   10.43525201
_cell_length_b   2.97414560
_cell_length_c   3.15385330
_cell_angle_alpha   90.00000000
_cell_angle_beta   107.22036517
_cell_angle_gamma   90.00000000
_symmetry_Int_Tables_number   12
_chemical_formula_structural   BaH14
_chemical_formula_sum   'Ba2 H28'
_cell_volume   93.49508537
_cell_formula_units_Z   2
loop_
 _symmetry_equiv_pos_site_id
 _symmetry_equiv_pos_as_xyz
  1  'x, y, z'
  2  '-x, -y, -z'
  3  '-x, y, -z'
  4  'x, -y, z'
  5  'x+1/2, y+1/2, z'
  6  '-x+1/2, -y+1/2, -z'
  7  '-x+1/2, y+1/2, -z'
  8  'x+1/2, -y+1/2, z'
loop_
 _atom_site_type_symbol
 _atom_site_label
 _atom_site_symmetry_multiplicity
 _atom_site_fract_x
 _atom_site_fract_y
 _atom_site_fract_z
 _atom_site_occupancy
  Ba  Ba0  2  0.00000000  0.00000000  0.00000000  1.0
  H  H1  4  0.06937900  0.50000000  0.55829800  1.0
  H  H2  4  0.13318350  0.50000000  0.42064600  1.0
  H  H3  4  0.15994300  0.00000000  0.67193500  1.0
  H  H4  4  0.16775000  0.50000000  0.17389800  1.0
  H  H5  4  0.20377800  0.50000000  0.90435300  1.0
  H  H6  4  0.20661250  0.00000000  0.51445100  1.0
  H  H7  4  0.22584450  0.00000000  0.15596600  1.0
