# generated using pymatgen
data_BaH20
_symmetry_space_group_name_H-M   P1
_cell_length_a   3.89737678
_cell_length_b   4.18107041
_cell_length_c   4.43112242
_cell_angle_alpha   114.55111047
_cell_angle_beta   108.64790523
_cell_angle_gamma   97.27804534
_symmetry_Int_Tables_number   1
_chemical_formula_structural   BaH20
_chemical_formula_sum   'Ba1 H20'
_cell_volume   59.34105647
_cell_formula_units_Z   1
loop_
 _symmetry_equiv_pos_site_id
 _symmetry_equiv_pos_as_xyz
  1  'x, y, z'
loop_
 _atom_site_type_symbol
 _atom_site_label
 _atom_site_symmetry_multiplicity
 _atom_site_fract_x
 _atom_site_fract_y
 _atom_site_fract_z
 _atom_site_occupancy
  Ba  Ba0  1  0.30075700  0.29212900  0.50834400  1.0
  H  H1  1  0.04467000  0.73279800  0.42143100  1.0
  H  H2  1  0.04907800  0.01876500  0.87452700  1.0
  H  H3  1  0.14564500  0.66452700  0.99897400  1.0
  H  H4  1  0.19373900  0.70095800  0.33008300  1.0
  H  H5  1  0.32448900  0.30402600  0.01658700  1.0
  H  H6  1  0.32837000  0.80843200  0.03598100  1.0
  H  H7  1  0.35927000  0.93750800  0.81805300  1.0
  H  H8  1  0.47085800  0.50236000  0.15626700  1.0
  H  H9  1  0.52422900  0.91806700  0.73728800  1.0
  H  H10  1  0.55460800  0.80124000  0.45247700  1.0
  H  H11  1  0.66845300  0.13058000  0.23202600  1.0
  H  H12  1  0.69933200  0.82386900  0.11337700  1.0
  H  H13  1  0.74753500  0.26197300  0.13376600  1.0
  H  H14  1  0.77283700  0.64836100  0.05210100  1.0
  H  H15  1  0.78168300  0.04416200  0.54428800  1.0
  H  H16  1  0.82364100  0.35295100  0.99554500  1.0
  H  H17  1  0.83966400  0.59628500  0.51638600  1.0
  H  H18  1  0.88685800  0.26222600  0.74868600  1.0
  H  H19  1  0.88807600  0.94042100  0.91557000  1.0
  H  H20  1  0.89700200  0.56628200  0.68773900  1.0
