# generated using pymatgen
data_BaH11
_symmetry_space_group_name_H-M   Cm
_cell_length_a   7.34763405
_cell_length_b   3.01578677
_cell_length_c   4.29829991
_cell_angle_alpha   90.00000000
_cell_angle_beta   123.92191042
_cell_angle_gamma   90.00000000
_symmetry_Int_Tables_number   8
_chemical_formula_structural   BaH11
_chemical_formula_sum   'Ba2 H22'
_cell_volume   79.03468706
_cell_formula_units_Z   2
loop_
 _symmetry_equiv_pos_site_id
 _symmetry_equiv_pos_as_xyz
  1  'x, y, z'
  2  'x, -y, z'
  3  'x+1/2, y+1/2, z'
  4  'x+1/2, -y+1/2, z'
loop_
 _atom_site_type_symbol
 _atom_site_label
 _atom_site_symmetry_multiplicity
 _atom_site_fract_x
 _atom_site_fract_y
 _atom_site_fract_z
 _atom_site_occupancy
  Ba  Ba0  2  0.45659900  0.00000000  0.64642600  1.0
  H  H1  2  0.07216100  0.00000000  0.16707600  1.0
  H  H2  2  0.08362850  0.00000000  0.43989300  1.0
  H  H3  2  0.13268850  0.50000000  0.30958100  1.0
  H  H4  2  0.14933100  0.00000000  0.08802800  1.0
  H  H5  2  0.19677850  0.00000000  0.73955000  1.0
  H  H6  2  0.25374100  0.50000000  0.66537800  1.0
  H  H7  2  0.26144600  0.50000000  0.21079000  1.0
  H  H8  2  0.29670100  0.00000000  0.98473900  1.0
  H  H9  2  0.34096400  0.50000000  0.89636600  1.0
  H  H10  2  0.38233900  0.50000000  0.20579200  1.0
  H  H11  2  0.48754600  0.00000000  0.17666300  1.0
