# generated using pymatgen
data_BaH15
_symmetry_space_group_name_H-M   P-1
_cell_length_a   2.98235538
_cell_length_b   3.68252466
_cell_length_c   4.35220960
_cell_angle_alpha   91.65352504
_cell_angle_beta   93.71309288
_cell_angle_gamma   95.39516463
_symmetry_Int_Tables_number   2
_chemical_formula_structural   BaH15
_chemical_formula_sum   'Ba1 H15'
_cell_volume   47.45753638
_cell_formula_units_Z   1
loop_
 _symmetry_equiv_pos_site_id
 _symmetry_equiv_pos_as_xyz
  1  'x, y, z'
  2  '-x, -y, -z'
loop_
 _atom_site_type_symbol
 _atom_site_label
 _atom_site_symmetry_multiplicity
 _atom_site_fract_x
 _atom_site_fract_y
 _atom_site_fract_z
 _atom_site_occupancy
  Ba  Ba0  1  0.00000000  0.00000000  0.50000000  1.0
  H  H1  2  0.03634100  0.51871500  0.79232500  1.0
  H  H2  2  0.24336400  0.41854100  0.86299300  1.0
  H  H3  2  0.24656500  0.84770800  0.04729400  1.0
  H  H4  2  0.31690000  0.32681600  0.14723600  1.0
  H  H5  2  0.42559100  0.54221900  0.43480400  1.0
  H  H6  2  0.42874900  0.73832700  0.17948900  1.0
  H  H7  2  0.49950800  0.19312700  0.18821700  1.0
  H  H8  1  0.00000000  0.00000000  0.00000000  1.0
