# generated using pymatgen
data_BaH6
_symmetry_space_group_name_H-M   P-1
_cell_length_a   3.02146910
_cell_length_b   3.92261402
_cell_length_c   5.60237667
_cell_angle_alpha   93.40945530
_cell_angle_beta   104.37406876
_cell_angle_gamma   96.18000525
_symmetry_Int_Tables_number   2
_chemical_formula_structural   BaH6
_chemical_formula_sum   'Ba2 H12'
_cell_volume   63.69064926
_cell_formula_units_Z   2
loop_
 _symmetry_equiv_pos_site_id
 _symmetry_equiv_pos_as_xyz
  1  'x, y, z'
  2  '-x, -y, -z'
loop_
 _atom_site_type_symbol
 _atom_site_label
 _atom_site_symmetry_multiplicity
 _atom_site_fract_x
 _atom_site_fract_y
 _atom_site_fract_z
 _atom_site_occupancy
  Ba  Ba0  2  0.12134900  0.79951550  0.78184350  1.0
  H  H1  2  0.05274200  0.28604250  0.60904950  1.0
  H  H2  2  0.25196900  0.72867250  0.21144750  1.0
  H  H3  2  0.26253200  0.33554250  0.95064750  1.0
  H  H4  2  0.42495100  0.45238350  0.54223850  1.0
  H  H5  2  0.42924900  0.91636850  0.45998950  1.0
  H  H6  2  0.48157900  0.66968350  0.16064350  1.0
