# generated using pymatgen
data_BaH22
_symmetry_space_group_name_H-M   P1
_cell_length_a   4.09754453
_cell_length_b   4.13812583
_cell_length_c   4.63939248
_cell_angle_alpha   115.96547756
_cell_angle_beta   115.59140228
_cell_angle_gamma   90.23539428
_symmetry_Int_Tables_number   1
_chemical_formula_structural   BaH22
_chemical_formula_sum   'Ba1 H22'
_cell_volume   61.94953081
_cell_formula_units_Z   1
loop_
 _symmetry_equiv_pos_site_id
 _symmetry_equiv_pos_as_xyz
  1  'x, y, z'
loop_
 _atom_site_type_symbol
 _atom_site_label
 _atom_site_symmetry_multiplicity
 _atom_site_fract_x
 _atom_site_fract_y
 _atom_site_fract_z
 _atom_site_occupancy
  Ba  Ba0  1  0.79505100  0.06186900  0.99504900  1.0
  H  H1  1  0.03815800  0.35712300  0.61370500  1.0
  H  H2  1  0.09216400  0.59371600  0.06022400  1.0
  H  H3  1  0.17245300  0.94848300  0.47787800  1.0
  H  H4  1  0.20078400  0.08921900  0.80321200  1.0
  H  H5  1  0.21568600  0.40033400  0.59535700  1.0
  H  H6  1  0.21975000  0.80213000  0.80595600  1.0
  H  H7  1  0.23626200  0.30213700  0.92119200  1.0
  H  H8  1  0.23876600  0.75729500  0.96119500  1.0
  H  H9  1  0.30298700  0.59807600  0.49670300  1.0
  H  H10  1  0.33923200  0.03570900  0.46925400  1.0
  H  H11  1  0.41408400  0.11269200  0.25840500  1.0
  H  H12  1  0.42674400  0.64965100  0.40480800  1.0
  H  H13  1  0.44757500  0.29892000  0.26798800  1.0
  H  H14  1  0.50003900  0.61375300  0.15734900  1.0
  H  H15  1  0.58358600  0.42108200  0.71212500  1.0
  H  H16  1  0.59666000  0.57479200  0.02646700  1.0
  H  H17  1  0.63982800  0.93518200  0.42342300  1.0
  H  H18  1  0.75952300  0.43226800  0.68177600  1.0
  H  H19  1  0.79167100  0.57648900  0.47827400  1.0
  H  H20  1  0.84399100  0.03774300  0.48812600  1.0
  H  H21  1  0.94614800  0.66855400  0.44524800  1.0
  H  H22  1  0.96842600  0.64629600  0.17540600  1.0
