# generated using pymatgen
data_BaH9
_symmetry_space_group_name_H-M   P-1
_cell_length_a   3.91155017
_cell_length_b   3.92736867
_cell_length_c   5.48480685
_cell_angle_alpha   79.07812154
_cell_angle_beta   79.13264926
_cell_angle_gamma   63.03115398
_symmetry_Int_Tables_number   2
_chemical_formula_structural   BaH9
_chemical_formula_sum   'Ba2 H18'
_cell_volume   73.22647819
_cell_formula_units_Z   2
loop_
 _symmetry_equiv_pos_site_id
 _symmetry_equiv_pos_as_xyz
  1  'x, y, z'
  2  '-x, -y, -z'
loop_
 _atom_site_type_symbol
 _atom_site_label
 _atom_site_symmetry_multiplicity
 _atom_site_fract_x
 _atom_site_fract_y
 _atom_site_fract_z
 _atom_site_occupancy
  Ba  Ba0  2  0.21824700  0.70028050  0.71888500  1.0
  H  H1  2  0.00300900  0.25856550  0.88757600  1.0
  H  H2  2  0.11042900  0.28944450  0.57661100  1.0
  H  H3  2  0.12897300  0.61024250  0.34093500  1.0
  H  H4  2  0.23030300  0.14429350  0.89670100  1.0
  H  H5  2  0.28414300  0.37337450  0.11440300  1.0
  H  H6  2  0.31551300  0.83781550  0.13622900  1.0
  H  H7  2  0.32591700  0.12436950  0.42064400  1.0
  H  H8  2  0.45061400  0.93582850  0.33309000  1.0
  H  H9  2  0.49165700  0.22281150  0.00164800  1.0
