# generated using pymatgen
data_BaH18
_symmetry_space_group_name_H-M   P1
_cell_length_a   3.08123284
_cell_length_b   4.36420561
_cell_length_c   4.46469866
_cell_angle_alpha   73.72280978
_cell_angle_beta   89.76388911
_cell_angle_gamma   73.67895830
_symmetry_Int_Tables_number   1
_chemical_formula_structural   BaH18
_chemical_formula_sum   'Ba1 H18'
_cell_volume   55.12665826
_cell_formula_units_Z   1
loop_
 _symmetry_equiv_pos_site_id
 _symmetry_equiv_pos_as_xyz
  1  'x, y, z'
loop_
 _atom_site_type_symbol
 _atom_site_label
 _atom_site_symmetry_multiplicity
 _atom_site_fract_x
 _atom_site_fract_y
 _atom_site_fract_z
 _atom_site_occupancy
  Ba  Ba0  1  0.64686900  0.08834800  0.13248200  1.0
  H  H1  1  0.00799800  0.55280000  0.05469300  1.0
  H  H2  1  0.01649500  0.55628000  0.32870100  1.0
  H  H3  1  0.06558000  0.20595300  0.44641300  1.0
  H  H4  1  0.13295000  0.54511500  0.88454600  1.0
  H  H5  1  0.14425900  0.05519100  0.79371300  1.0
  H  H6  1  0.22244100  0.38936400  0.69273300  1.0
  H  H7  1  0.22790300  0.86364500  0.52227300  1.0
  H  H8  1  0.25498900  0.86495700  0.85602100  1.0
  H  H9  1  0.34518900  0.71965900  0.44506700  1.0
  H  H10  1  0.42052100  0.30537800  0.58455000  1.0
  H  H11  1  0.42310500  0.59594000  0.23622700  1.0
  H  H12  1  0.55704500  0.57226500  0.80823800  1.0
  H  H13  1  0.57022600  0.61360200  0.07379700  1.0
  H  H14  1  0.63313700  0.95416300  0.66807000  1.0
  H  H15  1  0.75848300  0.46439000  0.71937100  1.0
  H  H16  1  0.83227000  0.24910700  0.54070000  1.0
  H  H17  1  0.84758500  0.60515400  0.46005900  1.0
  H  H18  1  0.85441700  0.81683400  0.65886100  1.0
