# generated using pymatgen
data_Ba2H11
_symmetry_space_group_name_H-M   P1
_cell_length_a   2.95643179
_cell_length_b   3.86765472
_cell_length_c   5.64234133
_cell_angle_alpha   73.14496915
_cell_angle_beta   74.83617255
_cell_angle_gamma   67.63268519
_symmetry_Int_Tables_number   1
_chemical_formula_structural   Ba2H11
_chemical_formula_sum   'Ba2 H11'
_cell_volume   56.26011416
_cell_formula_units_Z   1
loop_
 _symmetry_equiv_pos_site_id
 _symmetry_equiv_pos_as_xyz
  1  'x, y, z'
loop_
 _atom_site_type_symbol
 _atom_site_label
 _atom_site_symmetry_multiplicity
 _atom_site_fract_x
 _atom_site_fract_y
 _atom_site_fract_z
 _atom_site_occupancy
  Ba  Ba0  1  0.818313  0.233249  0.391654  1.0
  Ba  Ba1  1  0.828535  0.700307  0.881080  1.0
  H  H2  1  0.077704  0.068513  0.019767  1.0
  H  H3  1  0.077921  0.607127  0.502126  1.0
  H  H4  1  0.137483  0.668508  0.314256  1.0
  H  H5  1  0.140267  0.815418  0.147797  1.0
  H  H6  1  0.157971  0.164349  0.703856  1.0
  H  H7  1  0.367081  0.258061  0.745537  1.0
  H  H8  1  0.447893  0.285785  0.061984  1.0
  H  H9  1  0.465827  0.755812  0.559739  1.0
  H  H10  1  0.529321  0.035334  0.160263  1.0
  H  H11  1  0.561058  0.838580  0.293609  1.0
  H  H12  1  0.601633  0.329041  0.775151  1.0
