# generated using pymatgen
data_BaH11
_symmetry_space_group_name_H-M   P1
_cell_length_a   3.86460906
_cell_length_b   4.54839177
_cell_length_c   4.97983080
_cell_angle_alpha   105.73271013
_cell_angle_beta   102.82361451
_cell_angle_gamma   100.70198825
_symmetry_Int_Tables_number   1
_chemical_formula_structural   BaH11
_chemical_formula_sum   'Ba2 H22'
_cell_volume   79.28396697
_cell_formula_units_Z   2
loop_
 _symmetry_equiv_pos_site_id
 _symmetry_equiv_pos_as_xyz
  1  'x, y, z'
loop_
 _atom_site_type_symbol
 _atom_site_label
 _atom_site_symmetry_multiplicity
 _atom_site_fract_x
 _atom_site_fract_y
 _atom_site_fract_z
 _atom_site_occupancy
  Ba  Ba0  1  0.102149  0.815090  0.836255  1.0
  Ba  Ba1  1  0.110459  0.339613  0.331899  1.0
  H  H2  1  0.071846  0.841989  0.340746  1.0
  H  H3  1  0.277808  0.862582  0.312230  1.0
  H  H4  1  0.327029  0.468605  0.982538  1.0
  H  H5  1  0.343775  0.259106  0.748086  1.0
  H  H6  1  0.397063  0.121379  0.639061  1.0
  H  H7  1  0.412596  0.612811  0.126136  1.0
  H  H8  1  0.522490  0.559607  0.756387  1.0
  H  H9  1  0.529851  0.258708  0.152195  1.0
  H  H10  1  0.552999  0.882687  0.631588  1.0
  H  H11  1  0.584613  0.964018  0.241105  1.0
  H  H12  1  0.591249  0.740167  0.478332  1.0
  H  H13  1  0.593559  0.193525  0.995274  1.0
  H  H14  1  0.622488  0.239455  0.488031  1.0
  H  H15  1  0.637885  0.417630  0.617926  1.0
  H  H16  1  0.670714  0.023959  0.882238  1.0
  H  H17  1  0.675662  0.882038  0.103482  1.0
  H  H18  1  0.708739  0.619590  0.358890  1.0
  H  H19  1  0.784778  0.591312  0.096574  1.0
  H  H20  1  0.819627  0.456709  0.968951  1.0
  H  H21  1  0.889444  0.126963  0.629717  1.0
  H  H22  1  0.897153  0.978782  0.484256  1.0
  H  H23  1  0.977029  0.292150  0.833183  1.0
