# generated using pymatgen
data_BaH14
_symmetry_space_group_name_H-M   P1
_cell_length_a   3.26053747
_cell_length_b   3.27609771
_cell_length_c   4.50164344
_cell_angle_alpha   88.49723765
_cell_angle_beta   89.76207440
_cell_angle_gamma   89.46857791
_symmetry_Int_Tables_number   1
_chemical_formula_structural   BaH14
_chemical_formula_sum   'Ba1 H14'
_cell_volume   48.06685813
_cell_formula_units_Z   1
loop_
 _symmetry_equiv_pos_site_id
 _symmetry_equiv_pos_as_xyz
  1  'x, y, z'
loop_
 _atom_site_type_symbol
 _atom_site_label
 _atom_site_symmetry_multiplicity
 _atom_site_fract_x
 _atom_site_fract_y
 _atom_site_fract_z
 _atom_site_occupancy
  Ba  Ba0  1  0.38837300  0.99745900  0.26634200  1.0
  H  H1  1  0.01803300  0.33223500  0.89752600  1.0
  H  H2  1  0.20936000  0.48465500  0.92424900  1.0
  H  H3  1  0.26701700  0.50822700  0.59709500  1.0
  H  H4  1  0.28884300  0.91964700  0.76945900  1.0
  H  H5  1  0.46976200  0.07296800  0.76853000  1.0
  H  H6  1  0.51471600  0.49582900  0.60868100  1.0
  H  H7  1  0.58743300  0.50401300  0.93583500  1.0
  H  H8  1  0.77288000  0.72744300  0.90527700  1.0
  H  H9  1  0.86129000  0.28470400  0.61504600  1.0
  H  H10  1  0.87046600  0.48032700  0.17174100  1.0
  H  H11  1  0.88446600  0.02667300  0.60480400  1.0
  H  H12  1  0.88917600  0.97002800  0.94957600  1.0
  H  H13  1  0.89547100  0.51370900  0.34234600  1.0
  H  H14  1  0.91457200  0.71021200  0.59080900  1.0
