# generated using pymatgen
data_BaH21
_symmetry_space_group_name_H-M   P1
_cell_length_a   4.09243578
_cell_length_b   4.34314437
_cell_length_c   4.63072480
_cell_angle_alpha   117.25591115
_cell_angle_beta   114.88701943
_cell_angle_gamma   91.53929673
_symmetry_Int_Tables_number   1
_chemical_formula_structural   BaH21
_chemical_formula_sum   'Ba1 H21'
_cell_volume   63.86561312
_cell_formula_units_Z   1
loop_
 _symmetry_equiv_pos_site_id
 _symmetry_equiv_pos_as_xyz
  1  'x, y, z'
loop_
 _atom_site_type_symbol
 _atom_site_label
 _atom_site_symmetry_multiplicity
 _atom_site_fract_x
 _atom_site_fract_y
 _atom_site_fract_z
 _atom_site_occupancy
  Ba  Ba0  1  0.43316200  0.23208700  0.66889400  1.0
  H  H1  1  0.03701000  0.32646000  0.02659300  1.0
  H  H2  1  0.05438800  0.38609000  0.89398600  1.0
  H  H3  1  0.12048900  0.65412200  0.69028700  1.0
  H  H4  1  0.20609100  0.03581800  0.04834800  1.0
  H  H5  1  0.20698800  0.60999200  0.43156000  1.0
  H  H6  1  0.34245400  0.69734000  0.14977900  1.0
  H  H7  1  0.39990800  0.59612000  0.41573900  1.0
  H  H8  1  0.40157000  0.15626900  0.12706400  1.0
  H  H9  1  0.46542600  0.83034200  0.87783900  1.0
  H  H10  1  0.52507700  0.79931300  0.18424700  1.0
  H  H11  1  0.64181300  0.47294400  0.32497500  1.0
  H  H12  1  0.64334800  0.81773500  0.84661000  1.0
  H  H13  1  0.78887700  0.10236800  0.39897100  1.0
  H  H14  1  0.79479500  0.54656400  0.29214400  1.0
  H  H15  1  0.81131000  0.86935100  0.69217200  1.0
  H  H16  1  0.84268200  0.16320300  0.26770700  1.0
  H  H17  1  0.90165700  0.94113400  0.60378300  1.0
  H  H18  1  0.93124300  0.74070600  0.20833100  1.0
  H  H19  1  0.94900700  0.18458300  0.13097400  1.0
  H  H20  1  0.96609800  0.55912300  0.71615900  1.0
  H  H21  1  0.97172800  0.78233400  0.07280200  1.0
