# generated using pymatgen
data_BaH7
_symmetry_space_group_name_H-M   P-1
_cell_length_a   4.00306462
_cell_length_b   4.36271235
_cell_length_c   4.44910749
_cell_angle_alpha   101.78244394
_cell_angle_beta   115.86530254
_cell_angle_gamma   98.26783568
_symmetry_Int_Tables_number   2
_chemical_formula_structural   BaH7
_chemical_formula_sum   'Ba2 H14'
_cell_volume   66.00790443
_cell_formula_units_Z   2
loop_
 _symmetry_equiv_pos_site_id
 _symmetry_equiv_pos_as_xyz
  1  'x, y, z'
  2  '-x, -y, -z'
loop_
 _atom_site_type_symbol
 _atom_site_label
 _atom_site_symmetry_multiplicity
 _atom_site_fract_x
 _atom_site_fract_y
 _atom_site_fract_z
 _atom_site_occupancy
  Ba  Ba0  2  0.11106500  0.24907800  0.81278650  1.0
  H  H1  2  0.09253700  0.29782300  0.30448350  1.0
  H  H2  2  0.27593900  0.50403600  0.50718250  1.0
  H  H3  2  0.31149900  0.84360600  0.99843750  1.0
  H  H4  2  0.35356300  0.68061100  0.69044050  1.0
  H  H5  2  0.43666100  0.00432900  0.18729150  1.0
  H  H6  2  0.43666900  0.65115800  0.32513950  1.0
  H  H7  2  0.46100500  0.16108700  0.51715150  1.0
