# generated using pymatgen
data_Ba2H11
_symmetry_space_group_name_H-M   Cm
_cell_length_a   7.19960081
_cell_length_b   3.01726335
_cell_length_c   5.83288605
_cell_angle_alpha   90.00000000
_cell_angle_beta   114.48163562
_cell_angle_gamma   90.00000000
_symmetry_Int_Tables_number   8
_chemical_formula_structural   Ba2H11
_chemical_formula_sum   'Ba4 H22'
_cell_volume   115.31649821
_cell_formula_units_Z   2
loop_
 _symmetry_equiv_pos_site_id
 _symmetry_equiv_pos_as_xyz
  1  'x, y, z'
  2  'x, -y, z'
  3  'x+1/2, y+1/2, z'
  4  'x+1/2, -y+1/2, z'
loop_
 _atom_site_type_symbol
 _atom_site_label
 _atom_site_symmetry_multiplicity
 _atom_site_fract_x
 _atom_site_fract_y
 _atom_site_fract_z
 _atom_site_occupancy
  Ba  Ba0  2  0.15136400  0.00000000  0.68540500  1.0
  Ba  Ba1  2  0.16382550  0.00000000  0.19786900  1.0
  H  H2  2  0.00831650  0.50000000  0.83665600  1.0
  H  H3  2  0.01179150  0.50000000  0.36885600  1.0
  H  H4  2  0.29453500  0.50000000  0.02762800  1.0
  H  H5  2  0.29891800  0.50000000  0.53295400  1.0
  H  H6  2  0.35994000  0.50000000  0.41498000  1.0
  H  H7  2  0.36062250  0.50000000  0.91625300  1.0
  H  H8  2  0.40025200  0.50000000  0.78907400  1.0
  H  H9  2  0.40631800  0.50000000  0.29250900  1.0
  H  H10  2  0.41504950  0.00000000  0.57426800  1.0
  H  H11  2  0.42046150  0.00000000  0.10121700  1.0
  H  H12  2  0.45787250  0.00000000  0.96775200  1.0
