# generated using pymatgen
data_BaH5
_symmetry_space_group_name_H-M   C2/c
_cell_length_a   4.16898775
_cell_length_b   6.65683457
_cell_length_c   4.21665812
_cell_angle_alpha   90.00000000
_cell_angle_beta   92.18535485
_cell_angle_gamma   90.00000000
_symmetry_Int_Tables_number   15
_chemical_formula_structural   BaH5
_chemical_formula_sum   'Ba4 H20'
_cell_volume   116.93668956
_cell_formula_units_Z   4
loop_
 _symmetry_equiv_pos_site_id
 _symmetry_equiv_pos_as_xyz
  1  'x, y, z'
  2  '-x, -y, -z'
  3  '-x, y, -z+1/2'
  4  'x, -y, z+1/2'
  5  'x+1/2, y+1/2, z'
  6  '-x+1/2, -y+1/2, -z'
  7  '-x+1/2, y+1/2, -z+1/2'
  8  'x+1/2, -y+1/2, z+1/2'
loop_
 _atom_site_type_symbol
 _atom_site_label
 _atom_site_symmetry_multiplicity
 _atom_site_fract_x
 _atom_site_fract_y
 _atom_site_fract_z
 _atom_site_occupancy
  Ba  Ba0  4  0.00000000  0.23727050  0.25000000  1.0
  H  H1  8  0.09434700  0.44685950  0.84785600  1.0
  H  H2  8  0.23890750  0.49082900  0.00157700  1.0
  H  H3  4  0.00000000  0.10160200  0.75000000  1.0
