# generated using pymatgen
data_BaH13
_symmetry_space_group_name_H-M   Cm
_cell_length_a   3.08866246
_cell_length_b   7.73971630
_cell_length_c   3.75786624
_cell_angle_alpha   90.00000000
_cell_angle_beta   108.57523127
_cell_angle_gamma   90.00000000
_symmetry_Int_Tables_number   8
_chemical_formula_structural   BaH13
_chemical_formula_sum   'Ba2 H26'
_cell_volume   85.15343589
_cell_formula_units_Z   2
loop_
 _symmetry_equiv_pos_site_id
 _symmetry_equiv_pos_as_xyz
  1  'x, y, z'
  2  'x, -y, z'
  3  'x+1/2, y+1/2, z'
  4  'x+1/2, -y+1/2, z'
loop_
 _atom_site_type_symbol
 _atom_site_label
 _atom_site_symmetry_multiplicity
 _atom_site_fract_x
 _atom_site_fract_y
 _atom_site_fract_z
 _atom_site_occupancy
  Ba  Ba0  2  0.40145600  0.00000000  0.01077500  1.0
  H  H1  4  0.06749350  0.08228450  0.42037200  1.0
  H  H2  4  0.33954650  0.28671750  0.83910400  1.0
  H  H3  4  0.36638900  0.22671300  0.35035300  1.0
  H  H4  4  0.37057200  0.39390900  0.52756600  1.0
  H  H5  4  0.42731600  0.29033800  0.07433200  1.0
  H  H6  4  0.45047200  0.19669500  0.56666800  1.0
  H  H7  2  0.20343750  0.50000000  0.60389100  1.0
