# generated using pymatgen
data_BaH7
_symmetry_space_group_name_H-M   P1
_cell_length_a   2.97973341
_cell_length_b   3.55410274
_cell_length_c   6.39550971
_cell_angle_alpha   73.86011401
_cell_angle_beta   87.32850611
_cell_angle_gamma   88.83167325
_symmetry_Int_Tables_number   1
_chemical_formula_structural   BaH7
_chemical_formula_sum   'Ba2 H14'
_cell_volume   64.98804322
_cell_formula_units_Z   2
loop_
 _symmetry_equiv_pos_site_id
 _symmetry_equiv_pos_as_xyz
  1  'x, y, z'
loop_
 _atom_site_type_symbol
 _atom_site_label
 _atom_site_symmetry_multiplicity
 _atom_site_fract_x
 _atom_site_fract_y
 _atom_site_fract_z
 _atom_site_occupancy
  Ba  Ba0  1  0.49642800  0.68916100  0.21806500  1.0
  Ba  Ba1  1  0.55909400  0.92023100  0.72478500  1.0
  H  H2  1  0.02320400  0.19673600  0.18815700  1.0
  H  H3  1  0.03149400  0.05014100  0.96830500  1.0
  H  H4  1  0.03197100  0.69973300  0.97201300  1.0
  H  H5  1  0.04540900  0.80104600  0.47930700  1.0
  H  H6  1  0.04601000  0.39080200  0.76157100  1.0
  H  H7  1  0.05906000  0.46832000  0.98132400  1.0
  H  H8  1  0.10702400  0.52050600  0.63498100  1.0
  H  H9  1  0.11408000  0.22026400  0.46316800  1.0
  H  H10  1  0.43423500  0.29621400  0.97219100  1.0
  H  H11  1  0.51855600  0.09928400  0.39416300  1.0
  H  H12  1  0.55276100  0.51069700  0.54864900  1.0
  H  H13  1  0.70072400  0.26228400  0.96866200  1.0
  H  H14  1  0.89703700  0.11198100  0.31042000  1.0
  H  H15  1  0.94395900  0.39075400  0.47904400  1.0
