# generated using pymatgen
data_Ba2H15
_symmetry_space_group_name_H-M   Cm
_cell_length_a   7.23510030
_cell_length_b   3.04678367
_cell_length_c   6.14816207
_cell_angle_alpha   90.00000000
_cell_angle_beta   102.02105579
_cell_angle_gamma   90.00000000
_symmetry_Int_Tables_number   8
_chemical_formula_structural   Ba2H15
_chemical_formula_sum   'Ba4 H30'
_cell_volume   132.55677289
_cell_formula_units_Z   2
loop_
 _symmetry_equiv_pos_site_id
 _symmetry_equiv_pos_as_xyz
  1  'x, y, z'
  2  'x, -y, z'
  3  'x+1/2, y+1/2, z'
  4  'x+1/2, -y+1/2, z'
loop_
 _atom_site_type_symbol
 _atom_site_label
 _atom_site_symmetry_multiplicity
 _atom_site_fract_x
 _atom_site_fract_y
 _atom_site_fract_z
 _atom_site_occupancy
  Ba  Ba0  2  0.08044800  0.00000000  0.10705200  1.0
  Ba  Ba1  2  0.36992800  0.00000000  0.50145800  1.0
  H  H2  2  0.06866600  0.00000000  0.46875500  1.0
  H  H3  2  0.07401850  0.50000000  0.82987900  1.0
  H  H4  2  0.09127850  0.00000000  0.62140400  1.0
  H  H5  2  0.13540200  0.50000000  0.37096800  1.0
  H  H6  2  0.16808850  0.50000000  0.54705400  1.0
  H  H7  2  0.19360800  0.50000000  0.68827600  1.0
  H  H8  2  0.19868950  0.00000000  0.79870000  1.0
  H  H9  2  0.25991900  0.50000000  0.93261100  1.0
  H  H10  2  0.28601650  0.50000000  0.06929800  1.0
  H  H11  2  0.30931300  0.00000000  0.87936300  1.0
  H  H12  2  0.32197900  0.50000000  0.25075600  1.0
  H  H13  2  0.37351250  0.50000000  0.78747400  1.0
  H  H14  2  0.38220000  0.00000000  0.13747500  1.0
  H  H15  2  0.46785900  0.00000000  0.86083700  1.0
  H  H16  2  0.48045100  0.50000000  0.75244000  1.0
