# generated using pymatgen
data_Ba2H15
_symmetry_space_group_name_H-M   C2/m
_cell_length_a   3.99498215
_cell_length_b   6.22481466
_cell_length_c   5.58773816
_cell_angle_alpha   90.00000000
_cell_angle_beta   109.17429973
_cell_angle_gamma   90.00000000
_symmetry_Int_Tables_number   12
_chemical_formula_structural   Ba2H15
_chemical_formula_sum   'Ba4 H30'
_cell_volume   131.24725116
_cell_formula_units_Z   2
loop_
 _symmetry_equiv_pos_site_id
 _symmetry_equiv_pos_as_xyz
  1  'x, y, z'
  2  '-x, -y, -z'
  3  '-x, y, -z'
  4  'x, -y, z'
  5  'x+1/2, y+1/2, z'
  6  '-x+1/2, -y+1/2, -z'
  7  '-x+1/2, y+1/2, -z'
  8  'x+1/2, -y+1/2, z'
loop_
 _atom_site_type_symbol
 _atom_site_label
 _atom_site_symmetry_multiplicity
 _atom_site_fract_x
 _atom_site_fract_y
 _atom_site_fract_z
 _atom_site_occupancy
  Ba  Ba0  4  0.14431150  0.50000000  0.27376250  1.0
  H  H1  8  0.10085500  0.12808050  0.19890450  1.0
  H  H2  8  0.15909550  0.21711400  0.98618350  1.0
  H  H3  8  0.19176150  0.16179400  0.34962250  1.0
  H  H4  4  0.00000000  0.25148300  0.50000000  1.0
  H  H5  2  0.00000000  0.00000000  0.00000000  1.0
