# generated using pymatgen
data_BaH12
_symmetry_space_group_name_H-M   P2/m
_cell_length_a   2.97175929
_cell_length_b   3.82248032
_cell_length_c   3.89898204
_cell_angle_alpha   90.00000000
_cell_angle_beta   111.50178377
_cell_angle_gamma   90.00000000
_symmetry_Int_Tables_number   10
_chemical_formula_structural   BaH12
_chemical_formula_sum   'Ba1 H12'
_cell_volume   41.20811018
_cell_formula_units_Z   1
loop_
 _symmetry_equiv_pos_site_id
 _symmetry_equiv_pos_as_xyz
  1  'x, y, z'
  2  '-x, -y, -z'
  3  '-x, y, -z'
  4  'x, -y, z'
loop_
 _atom_site_type_symbol
 _atom_site_label
 _atom_site_symmetry_multiplicity
 _atom_site_fract_x
 _atom_site_fract_y
 _atom_site_fract_z
 _atom_site_occupancy
  Ba  Ba0  1  0.00000000  0.50000000  0.00000000  1.0
  H  H1  4  0.33266400  0.28545500  0.58706700  1.0
  H  H2  2  0.00000000  0.26628800  0.50000000  1.0
  H  H3  2  0.03748500  0.00000000  0.24461100  1.0
  H  H4  2  0.33175500  0.00000000  0.30939500  1.0
  H  H5  2  0.42983300  0.00000000  0.88860900  1.0
