# generated using pymatgen
data_Ba2H13
_symmetry_space_group_name_H-M   I4mm
_cell_length_a   4.18923269
_cell_length_b   4.18923269
_cell_length_c   7.03008967
_cell_angle_alpha   90.00000000
_cell_angle_beta   90.00000000
_cell_angle_gamma   90.00000000
_symmetry_Int_Tables_number   107
_chemical_formula_structural   Ba2H13
_chemical_formula_sum   'Ba4 H26'
_cell_volume   123.37575777
_cell_formula_units_Z   2
loop_
 _symmetry_equiv_pos_site_id
 _symmetry_equiv_pos_as_xyz
  1  'x, y, z'
  2  '-y, x, z'
  3  '-x, -y, z'
  4  'y, -x, z'
  5  '-x, y, z'
  6  'y, x, z'
  7  'x, -y, z'
  8  '-y, -x, z'
  9  'x+1/2, y+1/2, z+1/2'
  10  '-y+1/2, x+1/2, z+1/2'
  11  '-x+1/2, -y+1/2, z+1/2'
  12  'y+1/2, -x+1/2, z+1/2'
  13  '-x+1/2, y+1/2, z+1/2'
  14  'y+1/2, x+1/2, z+1/2'
  15  'x+1/2, -y+1/2, z+1/2'
  16  '-y+1/2, -x+1/2, z+1/2'
loop_
 _atom_site_type_symbol
 _atom_site_label
 _atom_site_symmetry_multiplicity
 _atom_site_fract_x
 _atom_site_fract_y
 _atom_site_fract_z
 _atom_site_occupancy
  Ba  Ba0  4  0.00000000  0.50000000  0.14473850  1.0
  H  H1  8  0.17407350  0.17407350  0.88794700  1.0
  H  H2  8  0.19372800  0.19372800  0.41123850  1.0
  H  H3  2  0.00000000  0.00000000  0.03098350  1.0
  H  H4  2  0.00000000  0.00000000  0.19183550  1.0
  H  H5  2  0.00000000  0.00000000  0.30749750  1.0
  H  H6  2  0.00000000  0.00000000  0.52036250  1.0
  H  H7  2  0.00000000  0.00000000  0.76485150  1.0
