# generated using pymatgen
data_BaH6
_symmetry_space_group_name_H-M   P1
_cell_length_a   3.05489054
_cell_length_b   3.93126776
_cell_length_c   5.77997445
_cell_angle_alpha   74.87483817
_cell_angle_beta   76.37132248
_cell_angle_gamma   67.09077200
_symmetry_Int_Tables_number   1
_chemical_formula_structural   BaH6
_chemical_formula_sum   'Ba2 H12'
_cell_volume   61.01939022
_cell_formula_units_Z   2
loop_
 _symmetry_equiv_pos_site_id
 _symmetry_equiv_pos_as_xyz
  1  'x, y, z'
loop_
 _atom_site_type_symbol
 _atom_site_label
 _atom_site_symmetry_multiplicity
 _atom_site_fract_x
 _atom_site_fract_y
 _atom_site_fract_z
 _atom_site_occupancy
  Ba  Ba0  1  0.56149600  0.10427000  0.68869800  1.0
  Ba  Ba1  1  0.57168000  0.63411800  0.19236300  1.0
  H  H2  1  0.10248000  0.65929400  0.53584800  1.0
  H  H3  1  0.17222500  0.16746800  0.37168200  1.0
  H  H4  1  0.18503200  0.70753300  0.86695300  1.0
  H  H5  1  0.26246600  0.46571400  0.95326500  1.0
  H  H6  1  0.32455700  0.24174800  0.06446300  1.0
  H  H7  1  0.32851700  0.72910300  0.57408800  1.0
  H  H8  1  0.49864000  0.09342800  0.33357300  1.0
  H  H9  1  0.80547000  0.49981900  0.81249200  1.0
  H  H10  1  0.85798300  0.01041600  0.30836700  1.0
  H  H11  1  0.86747700  0.27954900  0.92425300  1.0
  H  H12  1  0.89234600  0.54891600  0.51555900  1.0
  H  H13  1  0.94232500  0.04141600  0.02055600  1.0
