# generated using pymatgen
data_BaH20
_symmetry_space_group_name_H-M   P-1
_cell_length_a   4.01453300
_cell_length_b   4.10540385
_cell_length_c   4.44432339
_cell_angle_alpha   111.00935970
_cell_angle_beta   115.79827776
_cell_angle_gamma   96.56358139
_symmetry_Int_Tables_number   2
_chemical_formula_structural   BaH20
_chemical_formula_sum   'Ba1 H20'
_cell_volume   58.29210617
_cell_formula_units_Z   1
loop_
 _symmetry_equiv_pos_site_id
 _symmetry_equiv_pos_as_xyz
  1  'x, y, z'
  2  '-x, -y, -z'
loop_
 _atom_site_type_symbol
 _atom_site_label
 _atom_site_symmetry_multiplicity
 _atom_site_fract_x
 _atom_site_fract_y
 _atom_site_fract_z
 _atom_site_occupancy
  Ba  Ba0  1  0.50000000  0.50000000  0.50000000  1.0
  H  H1  2  0.01973300  0.28311800  0.58178300  1.0
  H  H2  2  0.03900600  0.05457900  0.90518300  1.0
  H  H3  2  0.07559900  0.55211800  0.98523900  1.0
  H  H4  2  0.14880200  0.89567400  0.47926800  1.0
  H  H5  2  0.16390300  0.66363700  0.77155600  1.0
  H  H6  2  0.22172400  0.13864100  0.89162900  1.0
  H  H7  2  0.29783800  0.88554400  0.25089600  1.0
  H  H8  2  0.35981900  0.83509000  0.89532500  1.0
  H  H9  2  0.39652200  0.41362100  0.93283900  1.0
  H  H10  2  0.48202900  0.07261600  0.72084300  1.0
