# generated using pymatgen
data_Ba2H19
_symmetry_space_group_name_H-M   P-1
_cell_length_a   3.89648827
_cell_length_b   3.97926479
_cell_length_c   5.01726186
_cell_angle_alpha   81.16400813
_cell_angle_beta   79.30293554
_cell_angle_gamma   89.23205408
_symmetry_Int_Tables_number   2
_chemical_formula_structural   Ba2H19
_chemical_formula_sum   'Ba2 H19'
_cell_volume   75.52522250
_cell_formula_units_Z   1
loop_
 _symmetry_equiv_pos_site_id
 _symmetry_equiv_pos_as_xyz
  1  'x, y, z'
  2  '-x, -y, -z'
loop_
 _atom_site_type_symbol
 _atom_site_label
 _atom_site_symmetry_multiplicity
 _atom_site_fract_x
 _atom_site_fract_y
 _atom_site_fract_z
 _atom_site_occupancy
  Ba  Ba0  2  0.40653750  0.80212350  0.77898350  1.0
  H  H1  2  0.05639950  0.37198050  0.36367750  1.0
  H  H2  2  0.06784450  0.94958850  0.30609750  1.0
  H  H3  2  0.09487150  0.43349850  0.19690750  1.0
  H  H4  2  0.10879750  0.99575250  0.12935150  1.0
  H  H5  2  0.15804950  0.29850750  0.94652950  1.0
  H  H6  2  0.19041750  0.31153750  0.75978650  1.0
  H  H7  2  0.23140750  0.37547250  0.56526750  1.0
  H  H8  2  0.32736050  0.64908250  0.39154950  1.0
  H  H9  2  0.36177450  0.70004750  0.22569550  1.0
  H  H10  1  0.00000000  0.00000000  0.50000000  1.0
