# generated using pymatgen
data_BaH13
_symmetry_space_group_name_H-M   P1
_cell_length_a   3.10413462
_cell_length_b   3.96742271
_cell_length_c   4.22818899
_cell_angle_alpha   77.31216218
_cell_angle_beta   69.04889871
_cell_angle_gamma   66.88485247
_symmetry_Int_Tables_number   1
_chemical_formula_structural   BaH13
_chemical_formula_sum   'Ba1 H13'
_cell_volume   44.53429620
_cell_formula_units_Z   1
loop_
 _symmetry_equiv_pos_site_id
 _symmetry_equiv_pos_as_xyz
  1  'x, y, z'
loop_
 _atom_site_type_symbol
 _atom_site_label
 _atom_site_symmetry_multiplicity
 _atom_site_fract_x
 _atom_site_fract_y
 _atom_site_fract_z
 _atom_site_occupancy
  Ba  Ba0  1  0.05955700  0.24295400  0.73992900  1.0
  H  H1  1  0.18700700  0.84719900  0.24415700  1.0
  H  H2  1  0.28432300  0.61258300  0.26211700  1.0
  H  H3  1  0.30843600  0.32285500  0.16018200  1.0
  H  H4  1  0.31557600  0.64715000  0.92100000  1.0
  H  H5  1  0.33051900  0.66159400  0.72793800  1.0
  H  H6  1  0.41343700  0.09288000  0.17224300  1.0
  H  H7  1  0.55137600  0.71871800  0.42702800  1.0
  H  H8  1  0.70863000  0.35019300  0.31047200  1.0
  H  H9  1  0.71976700  0.78683200  0.99807600  1.0
  H  H10  1  0.72613800  0.80161500  0.48208000  1.0
  H  H11  1  0.80168100  0.84268300  0.68709600  1.0
  H  H12  1  0.83235900  0.12179800  0.32032800  1.0
  H  H13  1  0.85766300  0.64537500  0.13091000  1.0
