# generated using pymatgen
data_BaH11
_symmetry_space_group_name_H-M   P1
_cell_length_a   3.86460906
_cell_length_b   4.54839177
_cell_length_c   4.97983080
_cell_angle_alpha   105.73271013
_cell_angle_beta   102.82361451
_cell_angle_gamma   100.70198825
_symmetry_Int_Tables_number   1
_chemical_formula_structural   BaH11
_chemical_formula_sum   'Ba2 H22'
_cell_volume   79.28396697
_cell_formula_units_Z   2
loop_
 _symmetry_equiv_pos_site_id
 _symmetry_equiv_pos_as_xyz
  1  'x, y, z'
loop_
 _atom_site_type_symbol
 _atom_site_label
 _atom_site_symmetry_multiplicity
 _atom_site_fract_x
 _atom_site_fract_y
 _atom_site_fract_z
 _atom_site_occupancy
  Ba  Ba0  1  0.10214900  0.81509000  0.83625500  1.0
  Ba  Ba1  1  0.11045900  0.33961300  0.33189900  1.0
  H  H2  1  0.07184600  0.84198900  0.34074600  1.0
  H  H3  1  0.27780800  0.86258200  0.31223000  1.0
  H  H4  1  0.32702900  0.46860500  0.98253800  1.0
  H  H5  1  0.34377500  0.25910600  0.74808600  1.0
  H  H6  1  0.39706300  0.12137900  0.63906100  1.0
  H  H7  1  0.41259600  0.61281100  0.12613600  1.0
  H  H8  1  0.52249000  0.55960700  0.75638700  1.0
  H  H9  1  0.52985100  0.25870800  0.15219500  1.0
  H  H10  1  0.55299900  0.88268700  0.63158800  1.0
  H  H11  1  0.58461300  0.96401800  0.24110500  1.0
  H  H12  1  0.59124900  0.74016700  0.47833200  1.0
  H  H13  1  0.59355900  0.19352500  0.99527400  1.0
  H  H14  1  0.62248800  0.23945500  0.48803100  1.0
  H  H15  1  0.63788500  0.41763000  0.61792600  1.0
  H  H16  1  0.67071400  0.02395900  0.88223800  1.0
  H  H17  1  0.67566200  0.88203800  0.10348200  1.0
  H  H18  1  0.70873900  0.61959000  0.35889000  1.0
  H  H19  1  0.78477800  0.59131200  0.09657400  1.0
  H  H20  1  0.81962700  0.45670900  0.96895100  1.0
  H  H21  1  0.88944400  0.12696300  0.62971700  1.0
  H  H22  1  0.89715300  0.97878200  0.48425600  1.0
  H  H23  1  0.97702900  0.29215000  0.83318300  1.0
