# generated using pymatgen
data_BaH21
_symmetry_space_group_name_H-M   P1
_cell_length_a   3.96421160
_cell_length_b   4.20510132
_cell_length_c   4.42048439
_cell_angle_alpha   114.29413053
_cell_angle_beta   112.10689934
_cell_angle_gamma   93.67785696
_symmetry_Int_Tables_number   1
_chemical_formula_structural   BaH21
_chemical_formula_sum   'Ba1 H21'
_cell_volume   60.09729242
_cell_formula_units_Z   1
loop_
 _symmetry_equiv_pos_site_id
 _symmetry_equiv_pos_as_xyz
  1  'x, y, z'
loop_
 _atom_site_type_symbol
 _atom_site_label
 _atom_site_symmetry_multiplicity
 _atom_site_fract_x
 _atom_site_fract_y
 _atom_site_fract_z
 _atom_site_occupancy
  Ba  Ba0  1  0.609229  0.246632  0.629290  1.0
  H  H1  1  0.047563  0.024954  0.518749  1.0
  H  H2  1  0.072415  0.258390  0.198486  1.0
  H  H3  1  0.099735  0.724988  0.147425  1.0
  H  H4  1  0.146543  0.033517  0.730078  1.0
  H  H5  1  0.171273  0.308342  0.088844  1.0
  H  H6  1  0.174461  0.500595  0.725040  1.0
  H  H7  1  0.206765  0.892261  0.026307  1.0
  H  H8  1  0.224669  0.447885  0.886464  1.0
  H  H9  1  0.333642  0.700744  0.585609  1.0
  H  H10  1  0.346600  0.915267  0.941263  1.0
  H  H11  1  0.432086  0.656090  0.447931  1.0
  H  H12  1  0.511587  0.318345  0.120812  1.0
  H  H13  1  0.536321  0.680207  0.226624  1.0
  H  H14  1  0.658412  0.767711  0.156960  1.0
  H  H15  1  0.687546  0.881636  0.953118  1.0
  H  H16  1  0.710919  0.280669  0.176586  1.0
  H  H17  1  0.838951  0.866639  0.869481  1.0
  H  H18  1  0.842150  0.706445  0.572973  1.0
  H  H19  1  0.962040  0.582627  0.478185  1.0
  H  H20  1  0.975006  0.136271  0.348482  1.0
  H  H21  1  0.977551  0.647677  0.222418  1.0
