# generated using pymatgen
data_BaH20
_symmetry_space_group_name_H-M   C2/m
_cell_length_a   6.79087233
_cell_length_b   5.70125861
_cell_length_c   3.01080448
_cell_angle_alpha   90.00000000
_cell_angle_beta   96.56686232
_cell_angle_gamma   90.00000000
_symmetry_Int_Tables_number   12
_chemical_formula_structural   BaH20
_chemical_formula_sum   'Ba2 H40'
_cell_volume   115.80307686
_cell_formula_units_Z   2
loop_
 _symmetry_equiv_pos_site_id
 _symmetry_equiv_pos_as_xyz
  1  'x, y, z'
  2  '-x, -y, -z'
  3  '-x, y, -z'
  4  'x, -y, z'
  5  'x+1/2, y+1/2, z'
  6  '-x+1/2, -y+1/2, -z'
  7  '-x+1/2, y+1/2, -z'
  8  'x+1/2, -y+1/2, z'
loop_
 _atom_site_type_symbol
 _atom_site_label
 _atom_site_symmetry_multiplicity
 _atom_site_fract_x
 _atom_site_fract_y
 _atom_site_fract_z
 _atom_site_occupancy
  Ba  Ba0  2  0.00000000  0.50000000  0.00000000  1.0
  H  H1  8  0.08581050  0.23447350  0.52802200  1.0
  H  H2  8  0.08679750  0.11791050  0.03552200  1.0
  H  H3  8  0.18439400  0.32105800  0.55329800  1.0
  H  H4  8  0.19797950  0.16896150  0.05237500  1.0
  H  H5  4  0.09015200  0.00000000  0.53726300  1.0
  H  H6  4  0.20929950  0.00000000  0.55132800  1.0
