# generated using pymatgen
data_BaH16
_symmetry_space_group_name_H-M   Cm
_cell_length_a   5.50367808
_cell_length_b   5.57265591
_cell_length_c   4.16935667
_cell_angle_alpha   90.00000000
_cell_angle_beta   125.56195509
_cell_angle_gamma   90.00000000
_symmetry_Int_Tables_number   8
_chemical_formula_structural   BaH16
_chemical_formula_sum   'Ba2 H32'
_cell_volume   104.02434219
_cell_formula_units_Z   2
loop_
 _symmetry_equiv_pos_site_id
 _symmetry_equiv_pos_as_xyz
  1  'x, y, z'
  2  'x, -y, z'
  3  'x+1/2, y+1/2, z'
  4  'x+1/2, -y+1/2, z'
loop_
 _atom_site_type_symbol
 _atom_site_label
 _atom_site_symmetry_multiplicity
 _atom_site_fract_x
 _atom_site_fract_y
 _atom_site_fract_z
 _atom_site_occupancy
  Ba  Ba0  2  0.44135200  0.50000000  0.31330800  1.0
  H  H1  4  0.04812550  0.37508250  0.28325400  1.0
  H  H2  4  0.11957050  0.17513850  0.92558900  1.0
  H  H3  4  0.21037900  0.28402100  0.77748000  1.0
  H  H4  4  0.26331500  0.37591200  0.67853300  1.0
  H  H5  4  0.34047150  0.13379850  0.37504500  1.0
  H  H6  4  0.40529100  0.14879200  0.60173600  1.0
  H  H7  4  0.49584200  0.15982600  0.06087400  1.0
  H  H8  2  0.13781150  0.00000000  0.95720600  1.0
  H  H9  2  0.43445200  0.00000000  0.82668800  1.0
