# generated using pymatgen
data_BaH16
_symmetry_space_group_name_H-M   P1
_cell_length_a   3.59520341
_cell_length_b   3.83498447
_cell_length_c   4.54238737
_cell_angle_alpha   113.83843320
_cell_angle_beta   99.25662671
_cell_angle_gamma   104.75127166
_symmetry_Int_Tables_number   1
_chemical_formula_structural   BaH16
_chemical_formula_sum   'Ba1 H16'
_cell_volume   52.87707883
_cell_formula_units_Z   1
loop_
 _symmetry_equiv_pos_site_id
 _symmetry_equiv_pos_as_xyz
  1  'x, y, z'
loop_
 _atom_site_type_symbol
 _atom_site_label
 _atom_site_symmetry_multiplicity
 _atom_site_fract_x
 _atom_site_fract_y
 _atom_site_fract_z
 _atom_site_occupancy
  Ba  Ba0  1  0.08463800  0.27965400  0.85363200  1.0
  H  H1  1  0.03136900  0.71098900  0.37688500  1.0
  H  H2  1  0.18253600  0.87686700  0.35120300  1.0
  H  H3  1  0.21400900  0.30422100  0.38388900  1.0
  H  H4  1  0.28819200  0.93089100  0.09834800  1.0
  H  H5  1  0.42685100  0.80214900  0.63222100  1.0
  H  H6  1  0.43965800  0.84479000  0.81339300  1.0
  H  H7  1  0.50402100  0.23252100  0.56005100  1.0
  H  H8  1  0.55623900  0.17931100  0.16252600  1.0
  H  H9  1  0.59297600  0.71272700  0.37588100  1.0
  H  H10  1  0.59630200  0.88355800  0.32616100  1.0
  H  H11  1  0.68993300  0.47780700  0.58269600  1.0
  H  H12  1  0.69211200  0.39041700  0.16643700  1.0
  H  H13  1  0.69392800  0.70848500  0.98802700  1.0
  H  H14  1  0.92173900  0.64806700  0.61729100  1.0
  H  H15  1  0.92439100  0.82899200  0.03949000  1.0
  H  H16  1  0.98631200  0.26906600  0.34255700  1.0
