# generated using pymatgen
data_BaH17
_symmetry_space_group_name_H-M   C2/m
_cell_length_a   8.20890766
_cell_length_b   2.97493178
_cell_length_c   4.45379993
_cell_angle_alpha   90.00000000
_cell_angle_beta   104.64760045
_cell_angle_gamma   90.00000000
_symmetry_Int_Tables_number   12
_chemical_formula_structural   BaH17
_chemical_formula_sum   'Ba2 H34'
_cell_volume   105.23102489
_cell_formula_units_Z   2
loop_
 _symmetry_equiv_pos_site_id
 _symmetry_equiv_pos_as_xyz
  1  'x, y, z'
  2  '-x, -y, -z'
  3  '-x, y, -z'
  4  'x, -y, z'
  5  'x+1/2, y+1/2, z'
  6  '-x+1/2, -y+1/2, -z'
  7  '-x+1/2, y+1/2, -z'
  8  'x+1/2, -y+1/2, z'
loop_
 _atom_site_type_symbol
 _atom_site_label
 _atom_site_symmetry_multiplicity
 _atom_site_fract_x
 _atom_site_fract_y
 _atom_site_fract_z
 _atom_site_occupancy
  Ba  Ba0  2  0.00000000  0.50000000  0.00000000  1.0
  H  H1  4  0.03691750  0.00000000  0.37860500  1.0
  H  H2  4  0.11671750  0.50000000  0.57020100  1.0
  H  H3  4  0.12077400  0.00000000  0.74747500  1.0
  H  H4  4  0.13194200  0.00000000  0.36340800  1.0
  H  H5  4  0.20840300  0.50000000  0.44240300  1.0
  H  H6  4  0.21282200  0.00000000  0.01967100  1.0
  H  H7  4  0.22145450  0.00000000  0.68002200  1.0
  H  H8  4  0.24026900  0.50000000  0.80031100  1.0
  H  H9  2  0.00000000  0.50000000  0.50000000  1.0
