# generated using pymatgen
data_Ba2H15
_symmetry_space_group_name_H-M   Cm
_cell_length_a   7.23510030
_cell_length_b   3.04678367
_cell_length_c   6.14816207
_cell_angle_alpha   90.00000000
_cell_angle_beta   102.02105579
_cell_angle_gamma   90.00000000
_symmetry_Int_Tables_number   8
_chemical_formula_structural   Ba2H15
_chemical_formula_sum   'Ba4 H30'
_cell_volume   132.55677289
_cell_formula_units_Z   2
loop_
 _symmetry_equiv_pos_site_id
 _symmetry_equiv_pos_as_xyz
  1  'x, y, z'
  2  'x, -y, z'
  3  'x+1/2, y+1/2, z'
  4  'x+1/2, -y+1/2, z'
loop_
 _atom_site_type_symbol
 _atom_site_label
 _atom_site_symmetry_multiplicity
 _atom_site_fract_x
 _atom_site_fract_y
 _atom_site_fract_z
 _atom_site_occupancy
  Ba  Ba0  2  0.080448  0.000000  0.107052  1.0
  Ba  Ba1  2  0.369928  0.000000  0.501458  1.0
  H  H2  2  0.068666  0.000000  0.468755  1.0
  H  H3  2  0.074018  0.500000  0.829879  1.0
  H  H4  2  0.091279  0.000000  0.621404  1.0
  H  H5  2  0.135402  0.500000  0.370968  1.0
  H  H6  2  0.168089  0.500000  0.547054  1.0
  H  H7  2  0.193608  0.500000  0.688276  1.0
  H  H8  2  0.198689  0.000000  0.798700  1.0
  H  H9  2  0.259919  0.500000  0.932611  1.0
  H  H10  2  0.286017  0.500000  0.069298  1.0
  H  H11  2  0.309313  0.000000  0.879363  1.0
  H  H12  2  0.321979  0.500000  0.250756  1.0
  H  H13  2  0.373512  0.500000  0.787474  1.0
  H  H14  2  0.382200  0.000000  0.137475  1.0
  H  H15  2  0.467859  0.000000  0.860837  1.0
  H  H16  2  0.480451  0.500000  0.752440  1.0
