# generated using pymatgen
data_BaH19
_symmetry_space_group_name_H-M   P1
_cell_length_a   2.98006033
_cell_length_b   4.02283813
_cell_length_c   5.09554094
_cell_angle_alpha   69.37176952
_cell_angle_beta   87.88778745
_cell_angle_gamma   78.69479734
_symmetry_Int_Tables_number   1
_chemical_formula_structural   BaH19
_chemical_formula_sum   'Ba1 H19'
_cell_volume   56.02653741
_cell_formula_units_Z   1
loop_
 _symmetry_equiv_pos_site_id
 _symmetry_equiv_pos_as_xyz
  1  'x, y, z'
loop_
 _atom_site_type_symbol
 _atom_site_label
 _atom_site_symmetry_multiplicity
 _atom_site_fract_x
 _atom_site_fract_y
 _atom_site_fract_z
 _atom_site_occupancy
  Ba  Ba0  1  0.58947200  0.11279400  0.83134300  1.0
  H  H1  1  0.05380500  0.50344500  0.53115300  1.0
  H  H2  1  0.07800300  0.25582900  0.12639700  1.0
  H  H3  1  0.13449800  0.73913100  0.15682500  1.0
  H  H4  1  0.17065200  0.05985500  0.49478800  1.0
  H  H5  1  0.17187600  0.67590200  0.79537700  1.0
  H  H6  1  0.25408400  0.61186700  0.47635900  1.0
  H  H7  1  0.34316400  0.20017500  0.39662300  1.0
  H  H8  1  0.43975600  0.40454500  0.11859300  1.0
  H  H9  1  0.45524600  0.81192500  0.27604700  1.0
  H  H10  1  0.47117500  0.70002500  0.65927600  1.0
  H  H11  1  0.60429200  0.52902700  0.02333900  1.0
  H  H12  1  0.61118900  0.33801200  0.37517000  1.0
  H  H13  1  0.63126600  0.93365000  0.28051800  1.0
  H  H14  1  0.71520900  0.77679000  0.57773100  1.0
  H  H15  1  0.80592600  0.44167500  0.39581400  1.0
  H  H16  1  0.91157100  0.93801100  0.49863900  1.0
  H  H17  1  0.96359300  0.60673300  0.16994000  1.0
  H  H18  1  0.96729600  0.08054100  0.21001900  1.0
  H  H19  1  0.98276600  0.54400600  0.87146700  1.0
