# generated using pymatgen
data_BaH16
_symmetry_space_group_name_H-M   C2/m
_cell_length_a   7.70950232
_cell_length_b   2.94025715
_cell_length_c   4.43053502
_cell_angle_alpha   90.00000000
_cell_angle_beta   103.95923396
_cell_angle_gamma   90.00000000
_symmetry_Int_Tables_number   12
_chemical_formula_structural   BaH16
_chemical_formula_sum   'Ba2 H32'
_cell_volume   97.46504262
_cell_formula_units_Z   2
loop_
 _symmetry_equiv_pos_site_id
 _symmetry_equiv_pos_as_xyz
  1  'x, y, z'
  2  '-x, -y, -z'
  3  '-x, y, -z'
  4  'x, -y, z'
  5  'x+1/2, y+1/2, z'
  6  '-x+1/2, -y+1/2, -z'
  7  '-x+1/2, y+1/2, -z'
  8  'x+1/2, -y+1/2, z'
loop_
 _atom_site_type_symbol
 _atom_site_label
 _atom_site_symmetry_multiplicity
 _atom_site_fract_x
 _atom_site_fract_y
 _atom_site_fract_z
 _atom_site_occupancy
  Ba  Ba0  2  0.00000000  0.00000000  0.00000000  1.0
  H  H1  4  0.02069150  0.50000000  0.36760300  1.0
  H  H2  4  0.05925300  0.00000000  0.53136100  1.0
  H  H3  4  0.12450800  0.50000000  0.36923100  1.0
  H  H4  4  0.14115050  0.50000000  0.75026900  1.0
  H  H5  4  0.18703050  0.00000000  0.47843600  1.0
  H  H6  4  0.21814650  0.50000000  0.03322900  1.0
  H  H7  4  0.23392000  0.50000000  0.64387200  1.0
  H  H8  4  0.24051550  0.00000000  0.78304900  1.0
