# generated using pymatgen
data_Ba5H11
_symmetry_space_group_name_H-M   P-1
_cell_length_a   3.01203489
_cell_length_b   6.03085575
_cell_length_c   6.56048783
_cell_angle_alpha   85.68799500
_cell_angle_beta   76.73240305
_cell_angle_gamma   89.86444112
_symmetry_Int_Tables_number   2
_chemical_formula_structural   Ba5H11
_chemical_formula_sum   'Ba5 H11'
_cell_volume   115.64944752
_cell_formula_units_Z   1
loop_
 _symmetry_equiv_pos_site_id
 _symmetry_equiv_pos_as_xyz
  1  'x, y, z'
  2  '-x, -y, -z'
loop_
 _atom_site_type_symbol
 _atom_site_label
 _atom_site_symmetry_multiplicity
 _atom_site_fract_x
 _atom_site_fract_y
 _atom_site_fract_z
 _atom_site_occupancy
  Ba  Ba0  2  0.20159300  0.30775400  0.60506450  1.0
  Ba  Ba1  2  0.40903700  0.10402300  0.19236650  1.0
  Ba  Ba2  1  0.00000000  0.50000000  0.00000000  1.0
  H  H3  2  0.03286200  0.13428800  0.93070050  1.0
  H  H4  2  0.16578900  0.66947700  0.66560150  1.0
  H  H5  2  0.24624000  0.92442300  0.53715650  1.0
  H  H6  2  0.36653800  0.46424900  0.26687150  1.0
  H  H7  2  0.43324300  0.73545200  0.13370550  1.0
  H  H8  1  0.00000000  0.00000000  0.50000000  1.0
