# generated using pymatgen
data_Ba2H11
_symmetry_space_group_name_H-M   P1
_cell_length_a   2.95643179
_cell_length_b   3.86765472
_cell_length_c   5.64234133
_cell_angle_alpha   73.14496915
_cell_angle_beta   74.83617255
_cell_angle_gamma   67.63268519
_symmetry_Int_Tables_number   1
_chemical_formula_structural   Ba2H11
_chemical_formula_sum   'Ba2 H11'
_cell_volume   56.26011416
_cell_formula_units_Z   1
loop_
 _symmetry_equiv_pos_site_id
 _symmetry_equiv_pos_as_xyz
  1  'x, y, z'
loop_
 _atom_site_type_symbol
 _atom_site_label
 _atom_site_symmetry_multiplicity
 _atom_site_fract_x
 _atom_site_fract_y
 _atom_site_fract_z
 _atom_site_occupancy
  Ba  Ba0  1  0.81831300  0.23324900  0.39165400  1.0
  Ba  Ba1  1  0.82853500  0.70030700  0.88108000  1.0
  H  H2  1  0.07770400  0.06851300  0.01976700  1.0
  H  H3  1  0.07792100  0.60712700  0.50212600  1.0
  H  H4  1  0.13748300  0.66850800  0.31425600  1.0
  H  H5  1  0.14026700  0.81541800  0.14779700  1.0
  H  H6  1  0.15797100  0.16434900  0.70385600  1.0
  H  H7  1  0.36708100  0.25806100  0.74553700  1.0
  H  H8  1  0.44789300  0.28578500  0.06198400  1.0
  H  H9  1  0.46582700  0.75581200  0.55973900  1.0
  H  H10  1  0.52932100  0.03533400  0.16026300  1.0
  H  H11  1  0.56105800  0.83858000  0.29360900  1.0
  H  H12  1  0.60163300  0.32904100  0.77515100  1.0
