# generated using pymatgen
data_Ba2H15
_symmetry_space_group_name_H-M   Cm
_cell_length_a   7.14912257
_cell_length_b   3.04160450
_cell_length_c   6.42604823
_cell_angle_alpha   90.00000000
_cell_angle_beta   104.11905784
_cell_angle_gamma   90.00000000
_symmetry_Int_Tables_number   8
_chemical_formula_structural   Ba2H15
_chemical_formula_sum   'Ba4 H30'
_cell_volume   135.51194683
_cell_formula_units_Z   2
loop_
 _symmetry_equiv_pos_site_id
 _symmetry_equiv_pos_as_xyz
  1  'x, y, z'
  2  'x, -y, z'
  3  'x+1/2, y+1/2, z'
  4  'x+1/2, -y+1/2, z'
loop_
 _atom_site_type_symbol
 _atom_site_label
 _atom_site_symmetry_multiplicity
 _atom_site_fract_x
 _atom_site_fract_y
 _atom_site_fract_z
 _atom_site_occupancy
  Ba  Ba0  2  0.13003700  0.00000000  0.08769800  1.0
  Ba  Ba1  2  0.39618700  0.00000000  0.50874000  1.0
  H  H2  4  0.35100000  0.13437700  0.86556300  1.0
  H  H3  2  0.05243450  0.50000000  0.83056000  1.0
  H  H4  2  0.06034000  0.00000000  0.72824600  1.0
  H  H5  2  0.07267300  0.00000000  0.40383100  1.0
  H  H6  2  0.14088600  0.00000000  0.65295300  1.0
  H  H7  2  0.15287450  0.50000000  0.34856600  1.0
  H  H8  2  0.15899450  0.50000000  0.81806300  1.0
  H  H9  2  0.18710250  0.50000000  0.51418100  1.0
  H  H10  2  0.23449800  0.50000000  0.65430900  1.0
  H  H11  2  0.31532050  0.50000000  0.96650200  1.0
  H  H12  2  0.34707250  0.50000000  0.11496100  1.0
  H  H13  2  0.38878500  0.50000000  0.26502400  1.0
  H  H14  2  0.41853200  0.50000000  0.77429300  1.0
  H  H15  2  0.45047350  0.00000000  0.18325200  1.0
