# generated using pymatgen
data_BaH21
_symmetry_space_group_name_H-M   P1
_cell_length_a   3.96421160
_cell_length_b   4.20510132
_cell_length_c   4.42048439
_cell_angle_alpha   114.29413053
_cell_angle_beta   112.10689934
_cell_angle_gamma   93.67785696
_symmetry_Int_Tables_number   1
_chemical_formula_structural   BaH21
_chemical_formula_sum   'Ba1 H21'
_cell_volume   60.09729242
_cell_formula_units_Z   1
loop_
 _symmetry_equiv_pos_site_id
 _symmetry_equiv_pos_as_xyz
  1  'x, y, z'
loop_
 _atom_site_type_symbol
 _atom_site_label
 _atom_site_symmetry_multiplicity
 _atom_site_fract_x
 _atom_site_fract_y
 _atom_site_fract_z
 _atom_site_occupancy
  Ba  Ba0  1  0.60922900  0.24663200  0.62929000  1.0
  H  H1  1  0.04756300  0.02495400  0.51874900  1.0
  H  H2  1  0.07241500  0.25839000  0.19848600  1.0
  H  H3  1  0.09973500  0.72498800  0.14742500  1.0
  H  H4  1  0.14654300  0.03351700  0.73007800  1.0
  H  H5  1  0.17127300  0.30834200  0.08884400  1.0
  H  H6  1  0.17446100  0.50059500  0.72504000  1.0
  H  H7  1  0.20676500  0.89226100  0.02630700  1.0
  H  H8  1  0.22466900  0.44788500  0.88646400  1.0
  H  H9  1  0.33364200  0.70074400  0.58560900  1.0
  H  H10  1  0.34660000  0.91526700  0.94126300  1.0
  H  H11  1  0.43208600  0.65609000  0.44793100  1.0
  H  H12  1  0.51158700  0.31834500  0.12081200  1.0
  H  H13  1  0.53632100  0.68020700  0.22662400  1.0
  H  H14  1  0.65841200  0.76771100  0.15696000  1.0
  H  H15  1  0.68754600  0.88163600  0.95311800  1.0
  H  H16  1  0.71091900  0.28066900  0.17658600  1.0
  H  H17  1  0.83895100  0.86663900  0.86948100  1.0
  H  H18  1  0.84215000  0.70644500  0.57297300  1.0
  H  H19  1  0.96204000  0.58262700  0.47818500  1.0
  H  H20  1  0.97500600  0.13627100  0.34848200  1.0
  H  H21  1  0.97755100  0.64767700  0.22241800  1.0
