# generated using pymatgen
data_Ba3H10
_symmetry_space_group_name_H-M   C2/m
_cell_length_a   10.94366899
_cell_length_b   2.90781787
_cell_length_c   5.03152699
_cell_angle_alpha   90.00000000
_cell_angle_beta   112.16482226
_cell_angle_gamma   90.00000000
_symmetry_Int_Tables_number   12
_chemical_formula_structural   Ba3H10
_chemical_formula_sum   'Ba6 H20'
_cell_volume   148.28217988
_cell_formula_units_Z   2
loop_
 _symmetry_equiv_pos_site_id
 _symmetry_equiv_pos_as_xyz
  1  'x, y, z'
  2  '-x, -y, -z'
  3  '-x, y, -z'
  4  'x, -y, z'
  5  'x+1/2, y+1/2, z'
  6  '-x+1/2, -y+1/2, -z'
  7  '-x+1/2, y+1/2, -z'
  8  'x+1/2, -y+1/2, z'
loop_
 _atom_site_type_symbol
 _atom_site_label
 _atom_site_symmetry_multiplicity
 _atom_site_fract_x
 _atom_site_fract_y
 _atom_site_fract_z
 _atom_site_occupancy
  Ba  Ba0  4  0.14412700  0.50000000  0.62178750  1.0
  Ba  Ba1  2  0.00000000  0.50000000  0.00000000  1.0
  H  H2  4  0.00319350  0.00000000  0.33299750  1.0
  H  H3  4  0.14909100  0.00000000  0.28482050  1.0
  H  H4  4  0.16832900  0.00000000  0.98667550  1.0
  H  H5  4  0.20323350  0.50000000  0.23469450  1.0
  H  H6  4  0.22452850  0.50000000  0.09286050  1.0
