# generated using pymatgen
data_BaH18
_symmetry_space_group_name_H-M   P-1
_cell_length_a   3.68305945
_cell_length_b   4.29171453
_cell_length_c   4.31724060
_cell_angle_alpha   115.67690330
_cell_angle_beta   105.87407967
_cell_angle_gamma   99.37395627
_symmetry_Int_Tables_number   2
_chemical_formula_structural   BaH18
_chemical_formula_sum   'Ba1 H18'
_cell_volume   55.95362884
_cell_formula_units_Z   1
loop_
 _symmetry_equiv_pos_site_id
 _symmetry_equiv_pos_as_xyz
  1  'x, y, z'
  2  '-x, -y, -z'
loop_
 _atom_site_type_symbol
 _atom_site_label
 _atom_site_symmetry_multiplicity
 _atom_site_fract_x
 _atom_site_fract_y
 _atom_site_fract_z
 _atom_site_occupancy
  Ba  Ba0  1  0.00000000  0.00000000  0.50000000  1.0
  H  H1  2  0.09559100  0.27551800  0.17463900  1.0
  H  H2  2  0.11076300  0.54484700  0.05993700  1.0
  H  H3  2  0.20494000  0.60684800  0.68657100  1.0
  H  H4  2  0.24075100  0.17814000  0.12295400  1.0
  H  H5  2  0.35826100  0.63073300  0.54026700  1.0
  H  H6  2  0.36208600  0.83641200  0.99315800  1.0
  H  H7  2  0.39723500  0.93207800  0.20792100  1.0
  H  H8  2  0.42996000  0.68716500  0.39347300  1.0
  H  H9  2  0.49523400  0.48013700  0.08093100  1.0
