# generated using pymatgen
data_Ba16H
_symmetry_space_group_name_H-M   C2/m
_cell_length_a   13.83901883
_cell_length_b   5.95719048
_cell_length_c   6.94231460
_cell_angle_alpha   90.00000000
_cell_angle_beta   93.11584857
_cell_angle_gamma   90.00000000
_symmetry_Int_Tables_number   12
_chemical_formula_structural   Ba16H
_chemical_formula_sum   'Ba32 H2'
_cell_volume   571.48991834
_cell_formula_units_Z   2
loop_
 _symmetry_equiv_pos_site_id
 _symmetry_equiv_pos_as_xyz
  1  'x, y, z'
  2  '-x, -y, -z'
  3  '-x, y, -z'
  4  'x, -y, z'
  5  'x+1/2, y+1/2, z'
  6  '-x+1/2, -y+1/2, -z'
  7  '-x+1/2, y+1/2, -z'
  8  'x+1/2, -y+1/2, z'
loop_
 _atom_site_type_symbol
 _atom_site_label
 _atom_site_symmetry_multiplicity
 _atom_site_fract_x
 _atom_site_fract_y
 _atom_site_fract_z
 _atom_site_occupancy
  Ba  Ba0  8  0.10719050  0.25525950  0.54037700  1.0
  Ba  Ba1  8  0.14528200  0.25202100  0.95920200  1.0
  Ba  Ba2  4  0.02022150  0.00000000  0.20394900  1.0
  Ba  Ba3  4  0.02027350  0.50000000  0.21124500  1.0
  Ba  Ba4  4  0.22782600  0.00000000  0.28974500  1.0
  Ba  Ba5  4  0.23105150  0.50000000  0.28824800  1.0
  H  H6  2  0.00000000  0.00000000  0.50000000  1.0
