# generated using pymatgen
data_BaH22
_symmetry_space_group_name_H-M   P1
_cell_length_a   3.41654242
_cell_length_b   4.57002568
_cell_length_c   4.57790667
_cell_angle_alpha   83.90982264
_cell_angle_beta   70.21897922
_cell_angle_gamma   70.35014796
_symmetry_Int_Tables_number   1
_chemical_formula_structural   BaH22
_chemical_formula_sum   'Ba1 H22'
_cell_volume   63.34100735
_cell_formula_units_Z   1
loop_
 _symmetry_equiv_pos_site_id
 _symmetry_equiv_pos_as_xyz
  1  'x, y, z'
loop_
 _atom_site_type_symbol
 _atom_site_label
 _atom_site_symmetry_multiplicity
 _atom_site_fract_x
 _atom_site_fract_y
 _atom_site_fract_z
 _atom_site_occupancy
  Ba  Ba0  1  0.13689500  0.10664400  0.11645000  1.0
  H  H1  1  0.00912000  0.74789100  0.48199300  1.0
  H  H2  1  0.01321800  0.61341200  0.14347100  1.0
  H  H3  1  0.05469400  0.08056400  0.61761600  1.0
  H  H4  1  0.23369800  0.47635200  0.74885000  1.0
  H  H5  1  0.24015300  0.73501100  0.47564700  1.0
  H  H6  1  0.25238200  0.13388200  0.60781900  1.0
  H  H7  1  0.25837100  0.60038600  0.08375100  1.0
  H  H8  1  0.35168200  0.74036700  0.74863200  1.0
  H  H9  1  0.41092500  0.31308500  0.39458500  1.0
  H  H10  1  0.46911800  0.44782900  0.28588100  1.0
  H  H11  1  0.56982900  0.75080300  0.74429600  1.0
  H  H12  1  0.62397100  0.92757400  0.42747600  1.0
  H  H13  1  0.63118700  0.39260100  0.91883000  1.0
  H  H14  1  0.63129000  0.80193300  0.31786500  1.0
  H  H15  1  0.63534900  0.10928800  0.61611300  1.0
  H  H16  1  0.63810200  0.60957100  0.11339400  1.0
  H  H17  1  0.64944100  0.28292300  0.79016400  1.0
  H  H18  1  0.70357000  0.45577600  0.49719900  1.0
  H  H19  1  0.83491000  0.92273300  0.81443000  1.0
  H  H20  1  0.83989400  0.79724000  0.94105400  1.0
  H  H21  1  0.92631500  0.47017800  0.48010600  1.0
  H  H22  1  0.99963500  0.48032700  0.77227900  1.0
