# generated using pymatgen
data_BaH10
_symmetry_space_group_name_H-M   Pmma
_cell_length_a   5.90595178
_cell_length_b   3.08816825
_cell_length_c   4.26303411
_cell_angle_alpha   90.00000000
_cell_angle_beta   90.00000000
_cell_angle_gamma   90.00000000
_symmetry_Int_Tables_number   51
_chemical_formula_structural   BaH10
_chemical_formula_sum   'Ba2 H20'
_cell_volume   77.75165774
_cell_formula_units_Z   2
loop_
 _symmetry_equiv_pos_site_id
 _symmetry_equiv_pos_as_xyz
  1  'x, y, z'
  2  '-x, -y, -z'
  3  '-x+1/2, -y, z'
  4  'x+1/2, y, -z'
  5  'x+1/2, -y, -z'
  6  '-x+1/2, y, z'
  7  '-x, y, -z'
  8  'x, -y, z'
loop_
 _atom_site_type_symbol
 _atom_site_label
 _atom_site_symmetry_multiplicity
 _atom_site_fract_x
 _atom_site_fract_y
 _atom_site_fract_z
 _atom_site_occupancy
  Ba  Ba0  2  0.250000  0.500000  0.363729  1.0
  H  H1  8  0.104468  0.375514  0.859271  1.0
  H  H2  4  0.032737  0.000000  0.646872  1.0
  H  H3  4  0.042156  0.000000  0.103212  1.0
  H  H4  2  0.250000  0.000000  0.756828  1.0
  H  H5  2  0.250000  0.000000  0.969340  1.0
