# generated using pymatgen
data_BaH10
_symmetry_space_group_name_H-M   Pmma
_cell_length_a   5.90595178
_cell_length_b   3.08816825
_cell_length_c   4.26303411
_cell_angle_alpha   90.00000000
_cell_angle_beta   90.00000000
_cell_angle_gamma   90.00000000
_symmetry_Int_Tables_number   51
_chemical_formula_structural   BaH10
_chemical_formula_sum   'Ba2 H20'
_cell_volume   77.75165774
_cell_formula_units_Z   2
loop_
 _symmetry_equiv_pos_site_id
 _symmetry_equiv_pos_as_xyz
  1  'x, y, z'
  2  '-x, -y, -z'
  3  '-x+1/2, -y, z'
  4  'x+1/2, y, -z'
  5  'x+1/2, -y, -z'
  6  '-x+1/2, y, z'
  7  '-x, y, -z'
  8  'x, -y, z'
loop_
 _atom_site_type_symbol
 _atom_site_label
 _atom_site_symmetry_multiplicity
 _atom_site_fract_x
 _atom_site_fract_y
 _atom_site_fract_z
 _atom_site_occupancy
  Ba  Ba0  2  0.25000000  0.50000000  0.36372850  1.0
  H  H1  8  0.10446800  0.37551400  0.85927050  1.0
  H  H2  4  0.03273700  0.00000000  0.64687150  1.0
  H  H3  4  0.04215600  0.00000000  0.10321250  1.0
  H  H4  2  0.25000000  0.00000000  0.75682850  1.0
  H  H5  2  0.25000000  0.00000000  0.96933950  1.0
