# generated using pymatgen
data_BaH7
_symmetry_space_group_name_H-M   P-1
_cell_length_a   3.10065835
_cell_length_b   3.16120997
_cell_length_c   7.00093337
_cell_angle_alpha   82.95640545
_cell_angle_beta   82.93242097
_cell_angle_gamma   80.66774550
_symmetry_Int_Tables_number   2
_chemical_formula_structural   BaH7
_chemical_formula_sum   'Ba2 H14'
_cell_volume   66.82885314
_cell_formula_units_Z   2
loop_
 _symmetry_equiv_pos_site_id
 _symmetry_equiv_pos_as_xyz
  1  'x, y, z'
  2  '-x, -y, -z'
loop_
 _atom_site_type_symbol
 _atom_site_label
 _atom_site_symmetry_multiplicity
 _atom_site_fract_x
 _atom_site_fract_y
 _atom_site_fract_z
 _atom_site_occupancy
  Ba  Ba0  2  0.21634050  0.20745700  0.23897000  1.0
  H  H1  2  0.08377450  0.22320900  0.94089000  1.0
  H  H2  2  0.15302050  0.68270200  0.47485900  1.0
  H  H3  2  0.24227250  0.24776200  0.59736000  1.0
  H  H4  2  0.24605350  0.75931300  0.01244900  1.0
  H  H5  2  0.31614450  0.84697800  0.52540100  1.0
  H  H6  2  0.36429850  0.36805300  0.67312900  1.0
  H  H7  2  0.37527450  0.29838300  0.92310000  1.0
