# generated using pymatgen
data_Ba3H16
_symmetry_space_group_name_H-M   P-1
_cell_length_a   4.00555095
_cell_length_b   4.23967197
_cell_length_c   5.64492691
_cell_angle_alpha   91.73942282
_cell_angle_beta   110.58646710
_cell_angle_gamma   102.57602950
_symmetry_Int_Tables_number   2
_chemical_formula_structural   Ba3H16
_chemical_formula_sum   'Ba3 H16'
_cell_volume   86.98700903
_cell_formula_units_Z   1
loop_
 _symmetry_equiv_pos_site_id
 _symmetry_equiv_pos_as_xyz
  1  'x, y, z'
  2  '-x, -y, -z'
loop_
 _atom_site_type_symbol
 _atom_site_label
 _atom_site_symmetry_multiplicity
 _atom_site_fract_x
 _atom_site_fract_y
 _atom_site_fract_z
 _atom_site_occupancy
  Ba  Ba0  2  0.03633050  0.63275450  0.26673400  1.0
  Ba  Ba1  1  0.50000000  0.00000000  0.00000000  1.0
  H  H2  2  0.05959550  0.13990150  0.28179500  1.0
  H  H3  2  0.06692950  0.90820150  0.61086100  1.0
  H  H4  2  0.10516450  0.17094450  0.12136500  1.0
  H  H5  2  0.35785750  0.16857750  0.59313400  1.0
  H  H6  2  0.39007750  0.36954750  0.56652400  1.0
  H  H7  2  0.42139050  0.47912350  0.11405700  1.0
  H  H8  2  0.47446450  0.69550650  0.66257500  1.0
  H  H9  2  0.48825750  0.88893750  0.61323400  1.0
