# generated using pymatgen
data_BaH10
_symmetry_space_group_name_H-M   Pm
_cell_length_a   4.41339742
_cell_length_b   3.05152275
_cell_length_c   5.93661340
_cell_angle_alpha   90.00000000
_cell_angle_beta   90.18936518
_cell_angle_gamma   90.00000000
_symmetry_Int_Tables_number   6
_chemical_formula_structural   BaH10
_chemical_formula_sum   'Ba2 H20'
_cell_volume   79.95139489
_cell_formula_units_Z   2
loop_
 _symmetry_equiv_pos_site_id
 _symmetry_equiv_pos_as_xyz
  1  'x, y, z'
  2  'x, -y, z'
loop_
 _atom_site_type_symbol
 _atom_site_label
 _atom_site_symmetry_multiplicity
 _atom_site_fract_x
 _atom_site_fract_y
 _atom_site_fract_z
 _atom_site_occupancy
  Ba  Ba0  1  0.14908800  0.50000000  0.29794100  1.0
  Ba  Ba1  1  0.88868200  0.50000000  0.78806600  1.0
  H  H2  2  0.66292000  0.37192500  0.43682900  1.0
  H  H3  1  0.06521800  0.00000000  0.03135100  1.0
  H  H4  1  0.20057500  0.00000000  0.60857400  1.0
  H  H5  1  0.24002300  0.00000000  0.98183800  1.0
  H  H6  1  0.25454500  0.00000000  0.75521300  1.0
  H  H7  1  0.36378000  0.50000000  0.93836200  1.0
  H  H8  1  0.38546600  0.50000000  0.75397100  1.0
  H  H9  1  0.38916800  0.50000000  0.61746000  1.0
  H  H10  1  0.41729900  0.00000000  0.48707400  1.0
  H  H11  1  0.44833900  0.00000000  0.13143000  1.0
  H  H12  1  0.51772200  0.00000000  0.77079900  1.0
  H  H13  1  0.54481800  0.00000000  0.27346500  1.0
  H  H14  1  0.55674800  0.50000000  0.07345000  1.0
  H  H15  1  0.57448500  0.00000000  0.62186500  1.0
  H  H16  1  0.61367600  0.00000000  0.98775900  1.0
  H  H17  1  0.68437300  0.50000000  0.16737800  1.0
  H  H18  1  0.77346700  0.00000000  0.27307800  1.0
  H  H19  1  0.78755900  0.00000000  0.07756400  1.0
  H  H20  1  0.88734300  0.00000000  0.50584900  1.0
