# generated using pymatgen
data_Ba16H
_symmetry_space_group_name_H-M   P2/m
_cell_length_a   6.88424353
_cell_length_b   5.87689334
_cell_length_c   6.89065942
_cell_angle_alpha   90.00000000
_cell_angle_beta   93.98121236
_cell_angle_gamma   90.00000000
_symmetry_Int_Tables_number   10
_chemical_formula_structural   Ba16H
_chemical_formula_sum   'Ba16 H1'
_cell_volume   278.10932008
_cell_formula_units_Z   1
loop_
 _symmetry_equiv_pos_site_id
 _symmetry_equiv_pos_as_xyz
  1  'x, y, z'
  2  '-x, -y, -z'
  3  '-x, y, -z'
  4  'x, -y, z'
loop_
 _atom_site_type_symbol
 _atom_site_label
 _atom_site_symmetry_multiplicity
 _atom_site_fract_x
 _atom_site_fract_y
 _atom_site_fract_z
 _atom_site_occupancy
  Ba  Ba0  4  0.21353700  0.25479600  0.54153300  1.0
  Ba  Ba1  4  0.29139600  0.24999000  0.95813400  1.0
  Ba  Ba2  2  0.04053300  0.50000000  0.20993500  1.0
  Ba  Ba3  2  0.04372900  0.00000000  0.20445600  1.0
  Ba  Ba4  2  0.45733400  0.00000000  0.29100600  1.0
  Ba  Ba5  2  0.45740400  0.50000000  0.28774800  1.0
  H  H6  1  0.00000000  0.00000000  0.50000000  1.0
