# generated using pymatgen
data_BaH23
_symmetry_space_group_name_H-M   C2/m
_cell_length_a   3.66422454
_cell_length_b   8.30188493
_cell_length_c   4.54273202
_cell_angle_alpha   90.00000000
_cell_angle_beta   113.52549922
_cell_angle_gamma   90.00000000
_symmetry_Int_Tables_number   12
_chemical_formula_structural   BaH23
_chemical_formula_sum   'Ba2 H46'
_cell_volume   126.70378857
_cell_formula_units_Z   2
loop_
 _symmetry_equiv_pos_site_id
 _symmetry_equiv_pos_as_xyz
  1  'x, y, z'
  2  '-x, -y, -z'
  3  '-x, y, -z'
  4  'x, -y, z'
  5  'x+1/2, y+1/2, z'
  6  '-x+1/2, -y+1/2, -z'
  7  '-x+1/2, y+1/2, -z'
  8  'x+1/2, -y+1/2, z'
loop_
 _atom_site_type_symbol
 _atom_site_label
 _atom_site_symmetry_multiplicity
 _atom_site_fract_x
 _atom_site_fract_y
 _atom_site_fract_z
 _atom_site_occupancy
  Ba  Ba0  2  0.00000000  0.00000000  0.00000000  1.0
  H  H1  8  0.04815000  0.19215400  0.37208300  1.0
  H  H2  8  0.07520300  0.40408900  0.34392600  1.0
  H  H3  8  0.10049500  0.38199100  0.18684100  1.0
  H  H4  8  0.23360200  0.25762000  0.07890000  1.0
  H  H5  8  0.24396700  0.30476000  0.64725700  1.0
  H  H6  4  0.00000000  0.04537250  0.50000000  1.0
  H  H7  2  0.00000000  0.50000000  0.50000000  1.0
