# generated using pymatgen
data_Ba2H11
_symmetry_space_group_name_H-M   P1
_cell_length_a   3.76379733
_cell_length_b   3.85294499
_cell_length_c   4.92518437
_cell_angle_alpha   79.24538065
_cell_angle_beta   67.72381555
_cell_angle_gamma   60.87279797
_symmetry_Int_Tables_number   1
_chemical_formula_structural   Ba2H11
_chemical_formula_sum   'Ba2 H11'
_cell_volume   57.73479996
_cell_formula_units_Z   1
loop_
 _symmetry_equiv_pos_site_id
 _symmetry_equiv_pos_as_xyz
  1  'x, y, z'
loop_
 _atom_site_type_symbol
 _atom_site_label
 _atom_site_symmetry_multiplicity
 _atom_site_fract_x
 _atom_site_fract_y
 _atom_site_fract_z
 _atom_site_occupancy
  Ba  Ba0  1  0.07587200  0.18206300  0.68200700  1.0
  Ba  Ba1  1  0.31525400  0.68245300  0.18167800  1.0
  H  H2  1  0.03399600  0.36624500  0.09638500  1.0
  H  H3  1  0.33707300  0.51623600  0.77003400  1.0
  H  H4  1  0.46176400  0.16976400  0.93045400  1.0
  H  H5  1  0.48596300  0.53917000  0.58918800  1.0
  H  H6  1  0.63309500  0.99579500  0.27706300  1.0
  H  H7  1  0.64428100  0.03974700  0.08101500  1.0
  H  H8  1  0.68804000  0.70037100  0.44646500  1.0
  H  H9  1  0.70648500  0.16419300  0.43565900  1.0
  H  H10  1  0.75001300  0.84133000  0.68000700  1.0
  H  H11  1  0.90575500  0.31333300  0.27679000  1.0
  H  H12  1  0.93845900  0.68903800  0.91331100  1.0
