# generated using pymatgen
data_BaH30
_symmetry_space_group_name_H-M   C2/m
_cell_length_a   20.96927580
_cell_length_b   4.03553900
_cell_length_c   6.98975800
_cell_angle_alpha   90.00000000
_cell_angle_beta   109.47121099
_cell_angle_gamma   90.00000000
_symmetry_Int_Tables_number   12
_chemical_formula_structural   BaH30
_chemical_formula_sum   'Ba8 H240'
_cell_volume   557.66178574
_cell_formula_units_Z   8
loop_
 _symmetry_equiv_pos_site_id
 _symmetry_equiv_pos_as_xyz
  1  'x, y, z'
  2  '-x, -y, -z'
  3  '-x, y, -z'
  4  'x, -y, z'
  5  'x+1/2, y+1/2, z'
  6  '-x+1/2, -y+1/2, -z'
  7  '-x+1/2, y+1/2, -z'
  8  'x+1/2, -y+1/2, z'
loop_
 _atom_site_type_symbol
 _atom_site_label
 _atom_site_symmetry_multiplicity
 _atom_site_fract_x
 _atom_site_fract_y
 _atom_site_fract_z
 _atom_site_occupancy
  Ba  Ba0  4  0.080826  0.000000  0.412484  1
  Ba  Ba1  4  0.248475  0.000000  0.244353  1
  H  H2  8  0.004273  0.335014  0.223218  1
  H  H3  8  0.017666  0.201236  0.754180  1
  H  H4  8  0.022234  0.369098  0.477698  1
  H  H5  8  0.026471  0.160852  0.972430  1
  H  H6  8  0.071452  0.334540  0.156095  1
  H  H7  8  0.072631  0.201950  0.698971  1
  H  H8  8  0.093553  0.200080  0.134030  1
  H  H9  8  0.094240  0.333388  0.674999  1
  H  H10  8  0.140526  0.150031  0.859214  1
  H  H11  8  0.143571  0.365104  0.352826  1
  H  H12  8  0.148703  0.202681  0.080003  1
  H  H13  8  0.155616  0.317858  0.596592  1
  H  H14  8  0.170972  0.333129  0.059283  1
  H  H15  8  0.177779  0.182461  0.572299  1
  H  H16  8  0.188101  0.367365  0.307908  1
  H  H17  8  0.188904  0.141849  0.810322  1
  H  H18  8  0.238272  0.317039  0.010988  1
  H  H19  8  0.238384  0.182105  0.511439  1
  H  H20  4  0.010520  0.500000  0.054565  1
  H  H21  4  0.011619  0.000000  0.558365  1
  H  H22  4  0.020849  0.000000  0.105430  1
  H  H23  4  0.027353  0.500000  0.636801  1
  H  H24  4  0.041615  0.000000  0.708445  1
  H  H25  4  0.041765  0.500000  0.208274  1
  H  H26  4  0.071406  0.500000  0.358032  1
  H  H27  4  0.072124  0.000000  0.863133  1
  H  H28  4  0.093886  0.000000  0.971369  1
  H  H29  4  0.094312  0.500000  0.473657  1
  H  H30  4  0.125181  0.000000  0.126481  1
  H  H31  4  0.125349  0.500000  0.624610  1
  H  H32  4  0.139878  0.500000  0.200046  1
  H  H33  4  0.143803  0.000000  0.726972  1
  H  H34  4  0.149901  0.500000  0.785788  1
  H  H35  4  0.154352  0.000000  0.273947  1
  H  H36  4  0.171160  0.500000  0.894420  1
  H  H37  4  0.177306  0.000000  0.388517  1
  H  H38  4  0.186779  0.000000  0.942225  1
  H  H39  4  0.189863  0.500000  0.449094  1
  H  H40  4  0.208268  0.500000  0.042831  1
  H  H41  4  0.209062  0.000000  0.541880  1
  H  H42  4  0.237856  0.500000  0.191205  1
  H  H43  4  0.238497  0.000000  0.694764  1
