# generated using pymatgen
data_BaH30
_symmetry_space_group_name_H-M   C2/m
_cell_length_a   20.96869681
_cell_length_b   4.03542786
_cell_length_c   6.98956606
_cell_angle_alpha   90.00000000
_cell_angle_beta   109.47122113
_cell_angle_gamma   90.00000000
_symmetry_Int_Tables_number   12
_chemical_formula_structural   BaH30
_chemical_formula_sum   'Ba8 H240'
_cell_volume   557.61568257
_cell_formula_units_Z   8
loop_
 _symmetry_equiv_pos_site_id
 _symmetry_equiv_pos_as_xyz
  1  'x, y, z'
  2  '-x, -y, -z'
  3  '-x, y, -z'
  4  'x, -y, z'
  5  'x+1/2, y+1/2, z'
  6  '-x+1/2, -y+1/2, -z'
  7  '-x+1/2, y+1/2, -z'
  8  'x+1/2, -y+1/2, z'
loop_
 _atom_site_type_symbol
 _atom_site_label
 _atom_site_symmetry_multiplicity
 _atom_site_fract_x
 _atom_site_fract_y
 _atom_site_fract_z
 _atom_site_occupancy
  Ba  Ba0  4  0.171851  0.500000  0.340454  1
  Ba  Ba1  2  0.000000  0.000000  0.000000  1
  Ba  Ba2  2  0.000000  0.500000  0.500000  1
  H  H3  8  0.033275  0.376975  0.162644  1
  H  H4  8  0.037371  0.103146  0.667405  1
  H  H5  8  0.038004  0.139161  0.325009  1
  H  H6  8  0.039321  0.357311  0.823150  1
  H  H7  8  0.083760  0.356767  0.059147  1
  H  H8  8  0.084193  0.141486  0.276704  1
  H  H9  8  0.084412  0.277414  0.420165  1
  H  H10  8  0.096112  0.118876  0.595583  1
  H  H11  8  0.096446  0.308772  0.787138  1
  H  H12  8  0.096583  0.180915  0.902629  1
  H  H13  8  0.134105  0.319328  0.978648  1
  H  H14  8  0.134829  0.109134  0.160779  1
  H  H15  8  0.134926  0.120088  0.556717  1
  H  H16  8  0.146039  0.260453  0.731821  1
  H  H17  8  0.189456  0.259035  0.939452  1
  H  H18  8  0.196651  0.309722  0.684377  1
  H  H19  8  0.199525  0.110971  0.503631  1
  H  H20  8  0.201485  0.113213  0.108030  1
  H  H21  8  0.237304  0.199952  0.768506  1
  H  H22  8  0.248362  0.362828  0.612889  1
  H  H23  8  0.248465  0.342387  0.911509  1
  H  H24  4  0.033771  0.500000  0.278615  1
  H  H25  4  0.035252  0.000000  0.775494  1
  H  H26  4  0.038080  0.000000  0.465915  1
  H  H27  4  0.038861  0.500000  0.968001  1
  H  H28  4  0.073148  0.500000  0.241817  1
  H  H29  4  0.099412  0.000000  0.092812  1
  H  H30  4  0.102070  0.500000  0.605696  1
  H  H31  4  0.105283  0.000000  0.768594  1
  H  H32  4  0.128299  0.000000  0.368965  1
  H  H33  4  0.134746  0.500000  0.567357  1
  H  H34  4  0.136906  0.500000  0.860401  1
  H  H35  4  0.146668  0.000000  0.979420  1
  H  H36  4  0.188447  0.000000  0.685685  1
  H  H37  4  0.194786  0.500000  0.809257  1
  H  H38  4  0.199837  0.500000  0.092823  1
  H  H39  4  0.203717  0.000000  0.296958  1
  H  H40  4  0.231122  0.000000  0.901930  1
  H  H41  4  0.233670  0.000000  0.576227  1
