# generated using pymatgen
data_BaH30
_symmetry_space_group_name_H-M   P2_1/m
_cell_length_a   6.98935007
_cell_length_b   4.03530276
_cell_length_c   9.88443267
_cell_angle_alpha   90.00000000
_cell_angle_beta   90.00000629
_cell_angle_gamma   90.00000000
_symmetry_Int_Tables_number   11
_chemical_formula_structural   BaH30
_chemical_formula_sum   'Ba4 H120'
_cell_volume   278.78195877
_cell_formula_units_Z   4
loop_
 _symmetry_equiv_pos_site_id
 _symmetry_equiv_pos_as_xyz
  1  'x, y, z'
  2  '-x, -y, -z'
  3  '-x, y+1/2, -z'
  4  'x, -y+1/2, z'
loop_
 _atom_site_type_symbol
 _atom_site_label
 _atom_site_symmetry_multiplicity
 _atom_site_fract_x
 _atom_site_fract_y
 _atom_site_fract_z
 _atom_site_occupancy
  Ba  Ba0  2  0.248112  0.750000  0.493288  1
  Ba  Ba1  2  0.415346  0.250000  0.155249  1
  H  H2  4  0.005882  0.009315  0.873979  1
  H  H3  4  0.034046  0.102233  0.427803  1
  H  H4  4  0.070964  0.600527  0.674781  1
  H  H5  4  0.079264  0.554189  0.327834  1
  H  H6  4  0.092974  0.600513  0.996987  1
  H  H7  4  0.121647  0.138190  0.571447  1
  H  H8  4  0.124514  0.095117  0.230026  1
  H  H9  4  0.160522  0.016072  0.794899  1
  H  H10  4  0.190422  0.600886  0.098543  1
  H  H11  4  0.231468  0.099707  0.331830  1
  H  H12  4  0.238912  0.052617  0.997633  1
  H  H13  4  0.262359  0.102704  0.670095  1
  H  H14  4  0.278665  0.636686  0.228084  1
  H  H15  4  0.289224  0.598496  0.896419  1
  H  H16  4  0.358777  0.106230  0.769235  1
  H  H17  4  0.359603  0.079698  0.444618  1
  H  H18  4  0.391850  0.604084  0.999118  1
  H  H19  4  0.412411  0.545420  0.666868  1
  H  H20  4  0.435111  0.604735  0.331778  1
  H  H21  4  0.446308  0.131834  0.895260  1
  H  H22  4  0.463965  0.101540  0.566046  1
  H  H23  2  0.007797  0.250000  0.572667  1
  H  H24  2  0.021813  0.750000  0.768458  1
  H  H25  2  0.067106  0.750000  0.203521  1
  H  H26  2  0.079831  0.250000  0.952226  1
  H  H27  2  0.085804  0.250000  0.721398  1
  H  H28  2  0.135563  0.250000  0.096860  1
  H  H29  2  0.142903  0.750000  0.898555  1
  H  H30  2  0.180926  0.250000  0.429757  1
  H  H31  2  0.234343  0.250000  0.870143  1
  H  H32  2  0.240817  0.750000  0.307329  1
  H  H33  2  0.249804  0.750000  0.712457  1
  H  H34  2  0.298262  0.750000  0.763346  1
  H  H35  2  0.313326  0.250000  0.567462  1
  H  H36  2  0.342628  0.750000  0.097678  1
  H  H37  2  0.406931  0.250000  0.970743  1
  H  H38  2  0.417678  0.250000  0.333337  1
  H  H39  2  0.469905  0.750000  0.556418  1
  H  H40  2  0.486591  0.750000  0.233245  1
