# generated using pymatgen
data_BaH30
_symmetry_space_group_name_H-M   P2/m
_cell_length_a   6.98968200
_cell_length_b   4.03549500
_cell_length_c   9.88490300
_cell_angle_alpha   90.00000000
_cell_angle_beta   90.00000000
_cell_angle_gamma   90.00000000
_symmetry_Int_Tables_number   10
_chemical_formula_structural   BaH30
_chemical_formula_sum   'Ba4 H120'
_cell_volume   278.82174649
_cell_formula_units_Z   4
loop_
 _symmetry_equiv_pos_site_id
 _symmetry_equiv_pos_as_xyz
  1  'x, y, z'
  2  '-x, -y, -z'
  3  '-x, y, -z'
  4  'x, -y, z'
loop_
 _atom_site_type_symbol
 _atom_site_label
 _atom_site_symmetry_multiplicity
 _atom_site_fract_x
 _atom_site_fract_y
 _atom_site_fract_z
 _atom_site_occupancy
  Ba  Ba0  2  0.171408  0.000000  0.838439  1
  Ba  Ba1  1  0.000000  0.500000  0.500000  1
  Ba  Ba2  1  0.500000  0.000000  0.500000  1
  H  H3  4  0.029302  0.201745  0.667604  1
  H  H4  4  0.048905  0.351919  0.949911  1
  H  H5  4  0.085055  0.316264  0.133713  1
  H  H6  4  0.117300  0.155940  0.381903  1
  H  H7  4  0.120713  0.217283  0.198013  1
  H  H8  4  0.134996  0.300426  0.666623  1
  H  H9  4  0.179705  0.402265  0.321272  1
  H  H10  4  0.203829  0.318943  0.012212  1
  H  H11  4  0.233530  0.201708  0.463239  1
  H  H12  4  0.239264  0.215745  0.259971  1
  H  H13  4  0.267126  0.302423  0.533817  1
  H  H14  4  0.284298  0.344492  0.717812  1
  H  H15  4  0.309884  0.214903  0.012713  1
  H  H16  4  0.336346  0.106716  0.668200  1
  H  H17  4  0.361483  0.214807  0.319201  1
  H  H18  4  0.387025  0.347018  0.617722  1
  H  H19  4  0.419017  0.315880  0.800671  1
  H  H20  4  0.428776  0.217266  0.070027  1
  H  H21  4  0.453029  0.214935  0.867388  1
  H  H22  4  0.460071  0.316799  0.321731  1
  H  H23  2  0.000000  0.109680  0.000000  1
  H  H24  2  0.002790  0.500000  0.249712  1
  H  H25  2  0.034252  0.000000  0.465896  1
  H  H26  2  0.068131  0.000000  0.281801  1
  H  H27  2  0.129424  0.500000  0.870604  1
  H  H28  2  0.147255  0.500000  0.072885  1
  H  H29  2  0.167274  0.000000  0.583956  1
  H  H30  2  0.169353  0.000000  0.082668  1
  H  H31  2  0.203873  0.500000  0.799311  1
  H  H32  2  0.229943  0.500000  0.615490  1
  H  H33  2  0.267699  0.000000  0.380989  1
  H  H34  2  0.300043  0.000000  0.201048  1
  H  H35  2  0.332981  0.500000  0.413650  1
  H  H36  2  0.334856  0.500000  0.918836  1
  H  H37  2  0.368648  0.000000  0.130848  1
  H  H38  2  0.405035  0.000000  0.951512  1
  H  H39  2  0.467097  0.500000  0.536699  1
  H  H40  2  0.480301  0.500000  0.740563  1
  H  H41  2  0.497191  0.000000  0.249159  1
  H  H42  2  0.500000  0.403357  0.000000  1
