# generated using pymatgen
data_BaH30
_symmetry_space_group_name_H-M   P-3m1
_cell_length_a   4.03517383
_cell_length_b   4.03517383
_cell_length_c   9.88411800
_cell_angle_alpha   90.00000000
_cell_angle_beta   90.00000000
_cell_angle_gamma   120.00000000
_symmetry_Int_Tables_number   164
_chemical_formula_structural   BaH30
_chemical_formula_sum   'Ba2 H60'
_cell_volume   139.37762199
_cell_formula_units_Z   2
loop_
 _symmetry_equiv_pos_site_id
 _symmetry_equiv_pos_as_xyz
  1  'x, y, z'
  2  '-x, -y, -z'
  3  '-y, x-y, z'
  4  'y, -x+y, -z'
  5  '-x+y, -x, z'
  6  'x-y, x, -z'
  7  'y, x, -z'
  8  '-y, -x, z'
  9  'x-y, -y, -z'
  10  '-x+y, y, z'
  11  '-x, -x+y, -z'
  12  'x, x-y, z'
loop_
 _atom_site_type_symbol
 _atom_site_label
 _atom_site_symmetry_multiplicity
 _atom_site_fract_x
 _atom_site_fract_y
 _atom_site_fract_z
 _atom_site_occupancy
  Ba  Ba0  2  0.333333  0.666667  0.180484  1
  H  H1  6  0.089354  0.544677  0.976188  1
  H  H2  6  0.089667  0.179334  0.245154  1
  H  H3  6  0.111063  0.888936  0.328429  1
  H  H4  6  0.115481  0.557741  0.479851  1
  H  H5  6  0.121084  0.242169  0.808149  1
  H  H6  6  0.150702  0.575351  0.894500  1
  H  H7  6  0.150938  0.301876  0.480094  1
  H  H8  6  0.203881  0.407761  0.856701  1
  H  H9  6  0.204979  0.409958  0.371868  1
  H  H10  2  0.000000  0.000000  0.410387  1
  H  H11  2  0.333333  0.666667  0.984161  1
  H  H12  2  0.333333  0.666667  0.366916  1
