# generated using pymatgen
data_BaH30
_symmetry_space_group_name_H-M   P-3m1
_cell_length_a   4.03546678
_cell_length_b   4.03546678
_cell_length_c   9.88483588
_cell_angle_alpha   90.00000000
_cell_angle_beta   90.00000000
_cell_angle_gamma   120.00000000
_symmetry_Int_Tables_number   164
_chemical_formula_structural   BaH30
_chemical_formula_sum   'Ba2 H60'
_cell_volume   139.40798402
_cell_formula_units_Z   2
loop_
 _symmetry_equiv_pos_site_id
 _symmetry_equiv_pos_as_xyz
  1  'x, y, z'
  2  '-x, -y, -z'
  3  '-y, x-y, z'
  4  'y, -x+y, -z'
  5  '-x+y, -x, z'
  6  'x-y, x, -z'
  7  'y, x, -z'
  8  '-y, -x, z'
  9  'x-y, -y, -z'
  10  '-x+y, y, z'
  11  '-x, -x+y, -z'
  12  'x, x-y, z'
loop_
 _atom_site_type_symbol
 _atom_site_label
 _atom_site_symmetry_multiplicity
 _atom_site_fract_x
 _atom_site_fract_y
 _atom_site_fract_z
 _atom_site_occupancy
  Ba  Ba0  2  0.333333  0.666667  0.832501  1
  H  H1  6  0.091526  0.545763  0.023876  1
  H  H2  6  0.094171  0.188343  0.769983  1
  H  H3  6  0.097710  0.548855  0.523248  1
  H  H4  6  0.113248  0.226497  0.682181  1
  H  H5  6  0.118809  0.881191  0.190568  1
  H  H6  6  0.147667  0.573834  0.105572  1
  H  H7  6  0.186962  0.373923  0.543429  1
  H  H8  6  0.204063  0.408125  0.635519  1
  H  H9  6  0.213957  0.427914  0.143052  1
  H  H10  2  0.000000  0.000000  0.363001  1
  H  H11  2  0.333333  0.666667  0.650829  1
  H  H12  2  0.333333  0.666667  0.013387  1
