# generated using pymatgen
data_B
_symmetry_space_group_name_H-M   C2/m
_cell_length_a   5.31288302
_cell_length_b   2.74684414
_cell_length_c   3.11475128
_cell_angle_alpha   90.00000000
_cell_angle_beta   93.58964309
_cell_angle_gamma   90.00000000
_symmetry_Int_Tables_number   12
_chemical_formula_structural   B
_chemical_formula_sum   B8
_cell_volume   45.36644500
_cell_formula_units_Z   8
loop_
 _symmetry_equiv_pos_site_id
 _symmetry_equiv_pos_as_xyz
  1  'x, y, z'
  2  '-x, -y, -z'
  3  '-x, y, -z'
  4  'x, -y, z'
  5  'x+1/2, y+1/2, z'
  6  '-x+1/2, -y+1/2, -z'
  7  '-x+1/2, y+1/2, -z'
  8  'x+1/2, -y+1/2, z'
loop_
 _atom_site_type_symbol
 _atom_site_label
 _atom_site_symmetry_multiplicity
 _atom_site_fract_x
 _atom_site_fract_y
 _atom_site_fract_z
 _atom_site_occupancy
  B  B0  4  0.096453  0.000000  0.805381  1
  B  B1  4  0.231119  0.000000  0.329319  1
