# generated using pymatgen
data_BaH30
_symmetry_space_group_name_H-M   C2/m
_cell_length_a   20.96825682
_cell_length_b   4.03534227
_cell_length_c   6.98941926
_cell_angle_alpha   90.00000000
_cell_angle_beta   109.47122156
_cell_angle_gamma   90.00000000
_symmetry_Int_Tables_number   12
_chemical_formula_structural   BaH30
_chemical_formula_sum   'Ba8 H240'
_cell_volume   557.58044323
_cell_formula_units_Z   8
loop_
 _symmetry_equiv_pos_site_id
 _symmetry_equiv_pos_as_xyz
  1  'x, y, z'
  2  '-x, -y, -z'
  3  '-x, y, -z'
  4  'x, -y, z'
  5  'x+1/2, y+1/2, z'
  6  '-x+1/2, -y+1/2, -z'
  7  '-x+1/2, y+1/2, -z'
  8  'x+1/2, -y+1/2, z'
loop_
 _atom_site_type_symbol
 _atom_site_label
 _atom_site_symmetry_multiplicity
 _atom_site_fract_x
 _atom_site_fract_y
 _atom_site_fract_z
 _atom_site_occupancy
  Ba  Ba0  4  0.169012  0.500000  0.997831  1
  Ba  Ba1  2  0.000000  0.000000  0.000000  1
  Ba  Ba2  2  0.000000  0.500000  0.500000  1
  H  H3  8  0.022466  0.182524  0.749577  1
  H  H4  8  0.023604  0.317245  0.251681  1
  H  H5  8  0.059989  0.144366  0.674782  1
  H  H6  8  0.060098  0.352100  0.180682  1
  H  H7  8  0.083870  0.183497  0.931766  1
  H  H8  8  0.084086  0.361697  0.749132  1
  H  H9  8  0.084204  0.318168  0.071031  1
  H  H10  8  0.087540  0.173656  0.564814  1
  H  H11  8  0.087846  0.129926  0.263216  1
  H  H12  8  0.088029  0.308120  0.434207  1
  H  H13  8  0.108079  0.147410  0.821648  1
  H  H14  8  0.127373  0.246771  0.381595  1
  H  H15  8  0.144738  0.304922  0.265844  1
  H  H16  8  0.144848  0.173255  0.736368  1
  H  H17  8  0.188719  0.305774  0.735203  1
  H  H18  8  0.189857  0.171502  0.265963  1
  H  H19  8  0.207358  0.248070  0.615152  1
  H  H20  8  0.226967  0.145156  0.183482  1
  H  H21  8  0.246300  0.134706  0.734909  1
  H  H22  8  0.249477  0.315224  0.929166  1
  H  H23  8  0.249526  0.318286  0.564702  1
  H  H24  4  0.023279  0.500000  0.070169  1
  H  H25  4  0.023797  0.000000  0.568401  1
  H  H26  4  0.042302  0.500000  0.875527  1
  H  H27  4  0.042696  0.000000  0.376229  1
  H  H28  4  0.059148  0.000000  0.822604  1
  H  H29  4  0.061562  0.500000  0.327607  1
  H  H30  4  0.107677  0.500000  0.182258  1
  H  H31  4  0.125236  0.500000  0.622739  1
  H  H32  4  0.125305  0.000000  0.128418  1
  H  H33  4  0.126348  0.000000  0.620138  1
  H  H34  4  0.143850  0.000000  0.929543  1
  H  H35  4  0.144564  0.500000  0.433353  1
  H  H36  4  0.189453  0.500000  0.565196  1
  H  H37  4  0.190025  0.000000  0.072734  1
  H  H38  4  0.208356  0.000000  0.872626  1
  H  H39  4  0.208898  0.000000  0.383850  1
  H  H40  4  0.209564  0.500000  0.377949  1
  H  H41  4  0.224438  0.500000  0.817053  1
