# generated using pymatgen
data_BaH30
_symmetry_space_group_name_H-M   C2/m
_cell_length_a   20.96827000
_cell_length_b   4.03534600
_cell_length_c   6.98942387
_cell_angle_alpha   90.00000000
_cell_angle_beta   109.47122102
_cell_angle_gamma   90.00000000
_symmetry_Int_Tables_number   12
_chemical_formula_structural   BaH30
_chemical_formula_sum   'Ba8 H240'
_cell_volume   557.58167809
_cell_formula_units_Z   8
loop_
 _symmetry_equiv_pos_site_id
 _symmetry_equiv_pos_as_xyz
  1  'x, y, z'
  2  '-x, -y, -z'
  3  '-x, y, -z'
  4  'x, -y, z'
  5  'x+1/2, y+1/2, z'
  6  '-x+1/2, -y+1/2, -z'
  7  '-x+1/2, y+1/2, -z'
  8  'x+1/2, -y+1/2, z'
loop_
 _atom_site_type_symbol
 _atom_site_label
 _atom_site_symmetry_multiplicity
 _atom_site_fract_x
 _atom_site_fract_y
 _atom_site_fract_z
 _atom_site_occupancy
  Ba  Ba0  4  0.166400  0.500000  0.499676  1
  Ba  Ba1  2  0.000000  0.000000  0.500000  1
  Ba  Ba2  2  0.000000  0.500000  0.000000  1
  H  H3  8  0.000420  0.249732  0.249468  1
  H  H4  8  0.055672  0.334018  0.334707  1
  H  H5  8  0.057532  0.161027  0.836272  1
  H  H6  8  0.062000  0.131944  0.184265  1
  H  H7  8  0.062278  0.367824  0.685603  1
  H  H8  8  0.083855  0.250125  0.500929  1
  H  H9  8  0.090351  0.228676  0.999601  1
  H  H10  8  0.104950  0.131711  0.314502  1
  H  H11  8  0.111787  0.162046  0.670456  1
  H  H12  8  0.112185  0.325836  0.164458  1
  H  H13  8  0.126583  0.251527  0.877987  1
  H  H14  8  0.166431  0.229084  0.229204  1
  H  H15  8  0.166525  0.227278  0.769947  1
  H  H16  8  0.208064  0.247913  0.120631  1
  H  H17  8  0.221051  0.161524  0.327593  1
  H  H18  8  0.223353  0.328012  0.839630  1
  H  H19  8  0.228122  0.131953  0.685198  1
  H  H20  4  0.000111  0.500000  0.666145  1
  H  H21  4  0.000354  0.000000  0.167341  1
  H  H22  4  0.055859  0.500000  0.499671  1
  H  H23  4  0.056986  0.000000  0.998141  1
  H  H24  4  0.062065  0.000000  0.316427  1
  H  H25  4  0.062971  0.500000  0.815975  1
  H  H26  4  0.082941  0.500000  0.250131  1
  H  H27  4  0.089789  0.000000  0.769272  1
  H  H28  4  0.105137  0.500000  0.685731  1
  H  H29  4  0.110583  0.000000  0.496992  1
  H  H30  4  0.113100  0.500000  0.001711  1
  H  H31  4  0.125377  0.000000  0.124379  1
  H  H32  4  0.165526  0.000000  0.670742  1
  H  H33  4  0.165987  0.500000  0.839013  1
  H  H34  4  0.166220  0.500000  0.161043  1
  H  H35  4  0.166679  0.500000  0.000538  1
  H  H36  4  0.166905  0.000000  0.500393  1
  H  H37  4  0.167902  0.000000  0.329845  1
  H  H38  4  0.208632  0.000000  0.879299  1
  H  H39  4  0.221771  0.500000  0.997771  1
  H  H40  4  0.222127  0.000000  0.502803  1
  H  H41  4  0.228277  0.500000  0.314100  1
  H  H42  4  0.242882  0.000000  0.231303  1
  H  H43  4  0.250000  0.250000  0.000000  1
  H  H44  4  0.250000  0.250000  0.500000  1
  H  H45  2  0.000000  0.000000  0.000000  1
  H  H46  2  0.000000  0.500000  0.500000  1
