# generated using pymatgen
data_BaH30
_symmetry_space_group_name_H-M   C2/m
_cell_length_a   20.96789631
_cell_length_b   4.03527358
_cell_length_c   6.98929912
_cell_angle_alpha   90.00000000
_cell_angle_beta   109.47122162
_cell_angle_gamma   90.00000000
_symmetry_Int_Tables_number   12
_chemical_formula_structural   BaH30
_chemical_formula_sum   'Ba8 H240'
_cell_volume   557.55178082
_cell_formula_units_Z   8
loop_
 _symmetry_equiv_pos_site_id
 _symmetry_equiv_pos_as_xyz
  1  'x, y, z'
  2  '-x, -y, -z'
  3  '-x, y, -z'
  4  'x, -y, z'
  5  'x+1/2, y+1/2, z'
  6  '-x+1/2, -y+1/2, -z'
  7  '-x+1/2, y+1/2, -z'
  8  'x+1/2, -y+1/2, z'
loop_
 _atom_site_type_symbol
 _atom_site_label
 _atom_site_symmetry_multiplicity
 _atom_site_fract_x
 _atom_site_fract_y
 _atom_site_fract_z
 _atom_site_occupancy
  Ba  Ba0  4  0.168053  0.000000  0.502808  1
  Ba  Ba1  2  0.000000  0.000000  0.000000  1
  Ba  Ba2  2  0.000000  0.500000  0.500000  1
  H  H3  8  0.044836  0.278747  0.137070  1
  H  H4  8  0.045900  0.220713  0.637647  1
  H  H5  8  0.056960  0.186643  0.329138  1
  H  H6  8  0.058046  0.313885  0.826849  1
  H  H7  8  0.067230  0.390982  0.191082  1
  H  H8  8  0.067682  0.116657  0.702711  1
  H  H9  8  0.103134  0.390225  0.298969  1
  H  H10  8  0.108779  0.313127  0.674484  1
  H  H11  8  0.109587  0.191946  0.170171  1
  H  H12  8  0.113433  0.162917  0.840155  1
  H  H13  8  0.121041  0.276431  0.364968  1
  H  H14  8  0.143741  0.358402  0.931366  1
  H  H15  8  0.190209  0.356533  0.069362  1
  H  H16  8  0.213421  0.281728  0.639488  1
  H  H17  8  0.222782  0.155101  0.158455  1
  H  H18  8  0.223983  0.311780  0.328137  1
  H  H19  8  0.224282  0.190831  0.827015  1
  H  H20  8  0.232975  0.386948  0.711873  1
  H  H21  4  0.004889  0.000000  0.670732  1
  H  H22  4  0.005034  0.500000  0.172734  1
  H  H23  4  0.045289  0.500000  0.361245  1
  H  H24  4  0.045352  0.000000  0.858269  1
  H  H25  4  0.056728  0.000000  0.514949  1
  H  H26  4  0.058664  0.500000  0.017228  1
  H  H27  4  0.065507  0.500000  0.304841  1
  H  H28  4  0.069976  0.000000  0.814076  1
  H  H29  4  0.104671  0.000000  0.709755  1
  H  H30  4  0.108311  0.500000  0.484341  1
  H  H31  4  0.109762  0.000000  0.979146  1
  H  H32  4  0.113090  0.500000  0.161956  1
  H  H33  4  0.119579  0.000000  0.636329  1
  H  H34  4  0.143895  0.500000  0.069816  1
  H  H35  4  0.159514  0.000000  0.829762  1
  H  H36  4  0.160060  0.500000  0.321777  1
  H  H37  4  0.171826  0.500000  0.671332  1
  H  H38  4  0.172759  0.000000  0.174068  1
  H  H39  4  0.190934  0.500000  0.930857  1
  H  H40  4  0.213925  0.000000  0.361309  1
  H  H41  4  0.223371  0.500000  0.513758  1
  H  H42  4  0.225107  0.000000  0.023718  1
  H  H43  4  0.225488  0.500000  0.842045  1
  H  H44  4  0.228962  0.000000  0.287442  1
