# generated using pymatgen
data_BaH30
_symmetry_space_group_name_H-M   P-3m1
_cell_length_a   4.03558283
_cell_length_b   4.03558283
_cell_length_c   9.88511800
_cell_angle_alpha   90.00000000
_cell_angle_beta   90.00000000
_cell_angle_gamma   120.00000000
_symmetry_Int_Tables_number   164
_chemical_formula_structural   BaH30
_chemical_formula_sum   'Ba2 H60'
_cell_volume   139.41998137
_cell_formula_units_Z   2
loop_
 _symmetry_equiv_pos_site_id
 _symmetry_equiv_pos_as_xyz
  1  'x, y, z'
  2  '-x, -y, -z'
  3  '-y, x-y, z'
  4  'y, -x+y, -z'
  5  '-x+y, -x, z'
  6  'x-y, x, -z'
  7  'y, x, -z'
  8  '-y, -x, z'
  9  'x-y, -y, -z'
  10  '-x+y, y, z'
  11  '-x, -x+y, -z'
  12  'x, x-y, z'
loop_
 _atom_site_type_symbol
 _atom_site_label
 _atom_site_symmetry_multiplicity
 _atom_site_fract_x
 _atom_site_fract_y
 _atom_site_fract_z
 _atom_site_occupancy
  Ba  Ba0  2  0.333333  0.666667  0.167888  1
  H  H1  6  0.027104  0.513552  0.743320  1
  H  H2  6  0.073409  0.146818  0.037201  1
  H  H3  6  0.094819  0.189638  0.226093  1
  H  H4  6  0.112195  0.224390  0.555416  1
  H  H5  6  0.140138  0.570069  0.892531  1
  H  H6  6  0.155028  0.310055  0.076937  1
  H  H7  6  0.179625  0.359250  0.455200  1
  H  H8  6  0.190445  0.595222  0.698924  1
  H  H9  6  0.229110  0.458219  0.610935  1
  H  H10  2  0.000000  0.000000  0.364870  1
  H  H11  2  0.333333  0.666667  0.989621  1
  H  H12  2  0.333333  0.666667  0.346895  1
