# generated using pymatgen
data_BaH30
_symmetry_space_group_name_H-M   C2/m
_cell_length_a   20.96868794
_cell_length_b   4.03542563
_cell_length_c   6.98956278
_cell_angle_alpha   90.00000000
_cell_angle_beta   109.47122025
_cell_angle_gamma   90.00000000
_symmetry_Int_Tables_number   12
_chemical_formula_structural   BaH30
_chemical_formula_sum   'Ba8 H240'
_cell_volume   557.61487931
_cell_formula_units_Z   8
loop_
 _symmetry_equiv_pos_site_id
 _symmetry_equiv_pos_as_xyz
  1  'x, y, z'
  2  '-x, -y, -z'
  3  '-x, y, -z'
  4  'x, -y, z'
  5  'x+1/2, y+1/2, z'
  6  '-x+1/2, -y+1/2, -z'
  7  '-x+1/2, y+1/2, -z'
  8  'x+1/2, -y+1/2, z'
loop_
 _atom_site_type_symbol
 _atom_site_label
 _atom_site_symmetry_multiplicity
 _atom_site_fract_x
 _atom_site_fract_y
 _atom_site_fract_z
 _atom_site_occupancy
  Ba  Ba0  4  0.169427  0.500000  0.507664  1
  Ba  Ba1  2  0.000000  0.000000  0.500000  1
  Ba  Ba2  2  0.000000  0.500000  0.000000  1
  H  H3  8  0.000203  0.204678  0.296407  1
  H  H4  8  0.000326  0.296083  0.205006  1
  H  H5  8  0.031868  0.380366  0.408130  1
  H  H6  8  0.035035  0.122345  0.908229  1
  H  H7  8  0.067410  0.202389  0.499695  1
  H  H8  8  0.076614  0.267254  0.000525  1
  H  H9  8  0.099231  0.299683  0.498212  1
  H  H10  8  0.111636  0.162249  0.998280  1
  H  H11  8  0.135529  0.121859  0.602356  1
  H  H12  8  0.139472  0.351758  0.080319  1
  H  H13  8  0.165906  0.339570  0.001736  1
  H  H14  8  0.166052  0.160335  0.833122  1
  H  H15  8  0.166059  0.266718  0.729141  1
  H  H16  8  0.166597  0.267215  0.270660  1
  H  H17  8  0.166928  0.091740  0.501432  1
  H  H18  8  0.167100  0.162362  0.165789  1
  H  H19  8  0.197240  0.120970  0.394436  1
  H  H20  8  0.197383  0.350301  0.920448  1
  H  H21  8  0.223338  0.171765  0.999776  1
  H  H22  8  0.234687  0.298454  0.500737  1
  H  H23  4  0.000000  0.090313  0.000000  1
  H  H24  4  0.000000  0.407186  0.500000  1
  H  H25  4  0.031691  0.500000  0.283961  1
  H  H26  4  0.035131  0.000000  0.786637  1
  H  H27  4  0.067229  0.500000  0.202977  1
  H  H28  4  0.072796  0.500000  0.407141  1
  H  H29  4  0.076665  0.000000  0.730940  1
  H  H30  4  0.082587  0.000000  0.916731  1
  H  H31  4  0.094982  0.000000  0.603583  1
  H  H32  4  0.096108  0.500000  0.088865  1
  H  H33  4  0.099657  0.500000  0.299758  1
  H  H34  4  0.112347  0.000000  0.837550  1
  H  H35  4  0.137198  0.500000  0.212618  1
  H  H36  4  0.138734  0.000000  0.749508  1
  H  H37  4  0.194545  0.000000  0.250864  1
  H  H38  4  0.199216  0.500000  0.793469  1
  H  H39  4  0.220674  0.000000  0.166437  1
  H  H40  4  0.237458  0.000000  0.397545  1
  H  H41  4  0.243908  0.500000  0.729571  1
  H  H42  4  0.246305  0.500000  0.920552  1
