# generated using pymatgen
data_BaH30
_symmetry_space_group_name_H-M   P2/m
_cell_length_a   6.98978000
_cell_length_b   4.03555200
_cell_length_c   9.88504200
_cell_angle_alpha   90.00000000
_cell_angle_beta   90.00000000
_cell_angle_gamma   90.00000000
_symmetry_Int_Tables_number   10
_chemical_formula_structural   BaH30
_chemical_formula_sum   'Ba4 H120'
_cell_volume   278.83351493
_cell_formula_units_Z   4
loop_
 _symmetry_equiv_pos_site_id
 _symmetry_equiv_pos_as_xyz
  1  'x, y, z'
  2  '-x, -y, -z'
  3  '-x, y, -z'
  4  'x, -y, z'
loop_
 _atom_site_type_symbol
 _atom_site_label
 _atom_site_symmetry_multiplicity
 _atom_site_fract_x
 _atom_site_fract_y
 _atom_site_fract_z
 _atom_site_occupancy
  Ba  Ba0  2  0.332730  0.000000  0.666032  1
  Ba  Ba1  1  0.000000  0.000000  0.000000  1
  Ba  Ba2  1  0.500000  0.500000  0.000000  1
  H  H3  4  0.051792  0.156519  0.447905  1
  H  H4  4  0.078062  0.236658  0.289030  1
  H  H5  4  0.086870  0.261299  0.913222  1
  H  H6  4  0.104154  0.313264  0.396012  1
  H  H7  4  0.112478  0.338036  0.056446  1
  H  H8  4  0.127680  0.389710  0.869021  1
  H  H9  4  0.200826  0.390106  0.795355  1
  H  H10  4  0.220743  0.337814  0.610411  1
  H  H11  4  0.228729  0.313687  0.271515  1
  H  H12  4  0.246919  0.260680  0.753714  1
  H  H13  4  0.255342  0.236542  0.377407  1
  H  H14  4  0.279645  0.152365  0.220275  1
  H  H15  4  0.368424  0.111225  0.131644  1
  H  H16  4  0.387648  0.163035  0.944143  1
  H  H17  4  0.413435  0.239700  0.086509  1
  H  H18  4  0.419981  0.260777  0.579998  1
  H  H19  4  0.445913  0.336983  0.723059  1
  H  H20  4  0.464564  0.393432  0.535553  1
  H  H21  2  0.000771  0.000000  0.168862  1
  H  H22  2  0.010368  0.500000  0.623246  1
  H  H23  2  0.041363  0.500000  0.270820  1
  H  H24  2  0.060302  0.500000  0.779838  1
  H  H25  2  0.068736  0.000000  0.534601  1
  H  H26  2  0.108399  0.000000  0.722399  1
  H  H27  2  0.159665  0.000000  0.579748  1
  H  H28  2  0.165741  0.500000  0.201169  1
  H  H29  2  0.167450  0.500000  0.465816  1
  H  H30  2  0.173886  0.000000  0.086757  1
  H  H31  2  0.224313  0.000000  0.944124  1
  H  H32  2  0.240667  0.500000  0.870498  1
  H  H33  2  0.258900  0.000000  0.132635  1
  H  H34  2  0.274153  0.500000  0.056568  1
  H  H35  2  0.292210  0.500000  0.395818  1
  H  H36  2  0.326101  0.500000  0.913133  1
  H  H37  2  0.333412  0.000000  0.497881  1
  H  H38  2  0.333707  0.000000  0.834168  1
  H  H39  2  0.343136  0.500000  0.290128  1
  H  H40  2  0.393234  0.500000  0.446231  1
  H  H41  2  0.404146  0.000000  0.205034  1
  H  H42  2  0.441166  0.000000  0.389225  1
  H  H43  2  0.493276  0.000000  0.246089  1
  H  H44  2  0.499687  0.500000  0.169040  1
