# generated using pymatgen
data_SrB
_symmetry_space_group_name_H-M   C2/c
_cell_length_a   7.84110332
_cell_length_b   4.57414195
_cell_length_c   5.67405632
_cell_angle_alpha   90.00000000
_cell_angle_beta   101.57889352
_cell_angle_gamma   90.00000000
_symmetry_Int_Tables_number   15
_chemical_formula_structural   SrB
_chemical_formula_sum   'Sr8 B8'
_cell_volume   199.36598793
_cell_formula_units_Z   8
loop_
 _symmetry_equiv_pos_site_id
 _symmetry_equiv_pos_as_xyz
  1  'x, y, z'
  2  '-x, -y, -z'
  3  '-x, y, -z+1/2'
  4  'x, -y, z+1/2'
  5  'x+1/2, y+1/2, z'
  6  '-x+1/2, -y+1/2, -z'
  7  '-x+1/2, y+1/2, -z+1/2'
  8  'x+1/2, -y+1/2, z+1/2'
loop_
 _atom_site_type_symbol
 _atom_site_label
 _atom_site_symmetry_multiplicity
 _atom_site_fract_x
 _atom_site_fract_y
 _atom_site_fract_z
 _atom_site_occupancy
  Sr  Sr0  8  0.168493  0.396187  0.784274  1
  B  B1  8  0.018775  0.099617  0.392102  1
