# generated using pymatgen
data_Sr
_symmetry_space_group_name_H-M   P-1
_cell_length_a   3.86396320
_cell_length_b   4.02812474
_cell_length_c   4.96917507
_cell_angle_alpha   92.79169824
_cell_angle_beta   105.37602146
_cell_angle_gamma   110.62875670
_symmetry_Int_Tables_number   2
_chemical_formula_structural   Sr
_chemical_formula_sum   Sr1
_cell_volume   68.92193850
_cell_formula_units_Z   1
loop_
 _symmetry_equiv_pos_site_id
 _symmetry_equiv_pos_as_xyz
  1  'x, y, z'
  2  '-x, -y, -z'
loop_
 _atom_site_type_symbol
 _atom_site_label
 _atom_site_symmetry_multiplicity
 _atom_site_fract_x
 _atom_site_fract_y
 _atom_site_fract_z
 _atom_site_occupancy
  Sr  Sr0  1  0.000000  0.000000  0.000000  1
