# generated using pymatgen
data_Sr
_symmetry_space_group_name_H-M   P2_1
_cell_length_a   5.49909379
_cell_length_b   6.23205918
_cell_length_c   5.77580941
_cell_angle_alpha   90.00000000
_cell_angle_beta   112.65912706
_cell_angle_gamma   90.00000000
_symmetry_Int_Tables_number   4
_chemical_formula_structural   Sr
_chemical_formula_sum   Sr8
_cell_volume   182.66246868
_cell_formula_units_Z   8
loop_
 _symmetry_equiv_pos_site_id
 _symmetry_equiv_pos_as_xyz
  1  'x, y, z'
  2  '-x, y+1/2, -z'
loop_
 _atom_site_type_symbol
 _atom_site_label
 _atom_site_symmetry_multiplicity
 _atom_site_fract_x
 _atom_site_fract_y
 _atom_site_fract_z
 _atom_site_occupancy
  Sr  Sr0  2  0.049119  0.908433  0.085648  1
  Sr  Sr1  2  0.078331  0.284924  0.419892  1
  Sr  Sr2  2  0.399249  0.645550  0.529501  1
  Sr  Sr3  2  0.494034  0.017269  0.926907  1
