# generated using pymatgen
data_Sr
_symmetry_space_group_name_H-M   P1
_cell_length_a   3.36792621
_cell_length_b   3.44363192
_cell_length_c   8.99230934
_cell_angle_alpha   87.69990986
_cell_angle_beta   84.38951831
_cell_angle_gamma   61.26505611
_symmetry_Int_Tables_number   1
_chemical_formula_structural   Sr
_chemical_formula_sum   Sr3
_cell_volume   91.00776700
_cell_formula_units_Z   3
loop_
 _symmetry_equiv_pos_site_id
 _symmetry_equiv_pos_as_xyz
  1  'x, y, z'
loop_
 _atom_site_type_symbol
 _atom_site_label
 _atom_site_symmetry_multiplicity
 _atom_site_fract_x
 _atom_site_fract_y
 _atom_site_fract_z
 _atom_site_occupancy
  Sr  Sr0  1  0.371077  0.437623  0.696541  1
  Sr  Sr1  1  0.441557  0.948604  0.353614  1
  Sr  Sr2  1  0.763092  0.465777  0.040784  1
