# generated using pymatgen
data_Sr
_symmetry_space_group_name_H-M   C2
_cell_length_a   9.41984108
_cell_length_b   6.15680563
_cell_length_c   6.29637139
_cell_angle_alpha   90.00000000
_cell_angle_beta   92.81264375
_cell_angle_gamma   90.00000000
_symmetry_Int_Tables_number   5
_chemical_formula_structural   Sr
_chemical_formula_sum   Sr16
_cell_volume   364.72527506
_cell_formula_units_Z   16
loop_
 _symmetry_equiv_pos_site_id
 _symmetry_equiv_pos_as_xyz
  1  'x, y, z'
  2  '-x, y, -z'
  3  'x+1/2, y+1/2, z'
  4  '-x+1/2, y+1/2, -z'
loop_
 _atom_site_type_symbol
 _atom_site_label
 _atom_site_symmetry_multiplicity
 _atom_site_fract_x
 _atom_site_fract_y
 _atom_site_fract_z
 _atom_site_occupancy
  Sr  Sr0  4  0.073084  0.511960  0.748063  1
  Sr  Sr1  4  0.177696  0.245320  0.392389  1
  Sr  Sr2  4  0.222050  0.687008  0.123525  1
  Sr  Sr3  2  0.000000  0.036104  0.000000  1
  Sr  Sr4  2  0.000000  0.894863  0.500000  1
