# generated using pymatgen
data_Sr
_symmetry_space_group_name_H-M   P1
_cell_length_a   3.88472052
_cell_length_b   5.98968427
_cell_length_c   5.99561800
_cell_angle_alpha   119.05740379
_cell_angle_beta   94.44948642
_cell_angle_gamma   92.31569286
_symmetry_Int_Tables_number   1
_chemical_formula_structural   Sr
_chemical_formula_sum   Sr3
_cell_volume   121.09167640
_cell_formula_units_Z   3
loop_
 _symmetry_equiv_pos_site_id
 _symmetry_equiv_pos_as_xyz
  1  'x, y, z'
loop_
 _atom_site_type_symbol
 _atom_site_label
 _atom_site_symmetry_multiplicity
 _atom_site_fract_x
 _atom_site_fract_y
 _atom_site_fract_z
 _atom_site_occupancy
  Sr  Sr0  1  0.265404  0.255885  0.647187  1
  Sr  Sr1  1  0.381996  0.991960  0.033837  1
  Sr  Sr2  1  0.843600  0.621440  0.374346  1
