# generated using pymatgen
data_Sr
_symmetry_space_group_name_H-M   P1
_cell_length_a   4.63434476
_cell_length_b   4.69305987
_cell_length_c   5.56318314
_cell_angle_alpha   91.88057630
_cell_angle_beta   92.14288084
_cell_angle_gamma   92.51078008
_symmetry_Int_Tables_number   1
_chemical_formula_structural   Sr
_chemical_formula_sum   Sr3
_cell_volume   120.72245693
_cell_formula_units_Z   3
loop_
 _symmetry_equiv_pos_site_id
 _symmetry_equiv_pos_as_xyz
  1  'x, y, z'
loop_
 _atom_site_type_symbol
 _atom_site_label
 _atom_site_symmetry_multiplicity
 _atom_site_fract_x
 _atom_site_fract_y
 _atom_site_fract_z
 _atom_site_occupancy
  Sr  Sr0  1  0.434105  0.985084  0.986089  1
  Sr  Sr1  1  0.938459  0.481678  0.940788  1
  Sr  Sr2  1  0.958302  0.001125  0.430629  1
