# generated using pymatgen
data_Sr
_symmetry_space_group_name_H-M   C2
_cell_length_a   6.29794119
_cell_length_b   3.74723642
_cell_length_c   9.59686461
_cell_angle_alpha   90.00000000
_cell_angle_beta   107.08974540
_cell_angle_gamma   90.00000000
_symmetry_Int_Tables_number   5
_chemical_formula_structural   Sr
_chemical_formula_sum   Sr6
_cell_volume   216.48450676
_cell_formula_units_Z   6
loop_
 _symmetry_equiv_pos_site_id
 _symmetry_equiv_pos_as_xyz
  1  'x, y, z'
  2  '-x, y, -z'
  3  'x+1/2, y+1/2, z'
  4  '-x+1/2, y+1/2, -z'
loop_
 _atom_site_type_symbol
 _atom_site_label
 _atom_site_symmetry_multiplicity
 _atom_site_fract_x
 _atom_site_fract_y
 _atom_site_fract_z
 _atom_site_occupancy
  Sr  Sr0  4  0.243325  0.414248  0.677775  1
  Sr  Sr1  2  0.000000  0.528216  0.000000  1
