# generated using pymatgen
data_Sr
_symmetry_space_group_name_H-M   P1
_cell_length_a   3.48597687
_cell_length_b   3.60829439
_cell_length_c   9.61396602
_cell_angle_alpha   83.70255758
_cell_angle_beta   86.00229424
_cell_angle_gamma   64.57884243
_symmetry_Int_Tables_number   1
_chemical_formula_structural   Sr
_chemical_formula_sum   Sr3
_cell_volume   108.52636925
_cell_formula_units_Z   3
loop_
 _symmetry_equiv_pos_site_id
 _symmetry_equiv_pos_as_xyz
  1  'x, y, z'
loop_
 _atom_site_type_symbol
 _atom_site_label
 _atom_site_symmetry_multiplicity
 _atom_site_fract_x
 _atom_site_fract_y
 _atom_site_fract_z
 _atom_site_occupancy
  Sr  Sr0  1  0.213008  0.933921  0.011504  1
  Sr  Sr1  1  0.757736  0.988677  0.679977  1
  Sr  Sr2  1  0.951404  0.346104  0.314960  1
