# generated using pymatgen
data_Sr
_symmetry_space_group_name_H-M   P1
_cell_length_a   3.62144338
_cell_length_b   5.66448109
_cell_length_c   6.05333359
_cell_angle_alpha   66.08922946
_cell_angle_beta   80.16217587
_cell_angle_gamma   85.02580427
_symmetry_Int_Tables_number   1
_chemical_formula_structural   Sr
_chemical_formula_sum   Sr3
_cell_volume   111.82836013
_cell_formula_units_Z   3
loop_
 _symmetry_equiv_pos_site_id
 _symmetry_equiv_pos_as_xyz
  1  'x, y, z'
loop_
 _atom_site_type_symbol
 _atom_site_label
 _atom_site_symmetry_multiplicity
 _atom_site_fract_x
 _atom_site_fract_y
 _atom_site_fract_z
 _atom_site_occupancy
  Sr  Sr0  1  0.064018  0.686115  0.764777  1
  Sr  Sr1  1  0.470383  0.085205  0.108281  1
  Sr  Sr2  1  0.840584  0.318473  0.459319  1
