# generated using pymatgen
data_Sr
_symmetry_space_group_name_H-M   P1
_cell_length_a   3.78766675
_cell_length_b   5.64449170
_cell_length_c   5.67078010
_cell_angle_alpha   71.63819096
_cell_angle_beta   76.80050127
_cell_angle_gamma   83.46737741
_symmetry_Int_Tables_number   1
_chemical_formula_structural   Sr
_chemical_formula_sum   Sr3
_cell_volume   111.91066669
_cell_formula_units_Z   3
loop_
 _symmetry_equiv_pos_site_id
 _symmetry_equiv_pos_as_xyz
  1  'x, y, z'
loop_
 _atom_site_type_symbol
 _atom_site_label
 _atom_site_symmetry_multiplicity
 _atom_site_fract_x
 _atom_site_fract_y
 _atom_site_fract_z
 _atom_site_occupancy
  Sr  Sr0  1  0.011039  0.718939  0.404465  1
  Sr  Sr1  1  0.295461  0.130891  0.657093  1
  Sr  Sr2  1  0.761787  0.349517  0.122481  1
