# generated using pymatgen
data_Sr
_symmetry_space_group_name_H-M   P1
_cell_length_a   5.60499988
_cell_length_b   5.70255753
_cell_length_c   8.17098465
_cell_angle_alpha   108.98354614
_cell_angle_beta   108.98502836
_cell_angle_gamma   91.45246414
_symmetry_Int_Tables_number   1
_chemical_formula_structural   Sr
_chemical_formula_sum   Sr11
_cell_volume   231.00304887
_cell_formula_units_Z   11
loop_
 _symmetry_equiv_pos_site_id
 _symmetry_equiv_pos_as_xyz
  1  'x, y, z'
loop_
 _atom_site_type_symbol
 _atom_site_label
 _atom_site_symmetry_multiplicity
 _atom_site_fract_x
 _atom_site_fract_y
 _atom_site_fract_z
 _atom_site_occupancy
  Sr  Sr0  1  0.008889  0.145565  0.624126  1
  Sr  Sr1  1  0.250342  0.265143  0.386042  1
  Sr  Sr2  1  0.272642  0.323316  0.019292  1
  Sr  Sr3  1  0.341449  0.746441  0.889947  1
  Sr  Sr4  1  0.350065  0.771743  0.510235  1
  Sr  Sr5  1  0.579480  0.919740  0.283562  1
  Sr  Sr6  1  0.591230  0.348203  0.754662  1
  Sr  Sr7  1  0.754125  0.362211  0.260773  1
  Sr  Sr8  1  0.801437  0.024041  0.942136  1
  Sr  Sr9  1  0.844682  0.656258  0.619918  1
  Sr  Sr10  1  0.972510  0.688466  0.131403  1
