# generated using pymatgen
data_Sr
_symmetry_space_group_name_H-M   P1
_cell_length_a   4.78106814
_cell_length_b   5.89349550
_cell_length_c   8.69519355
_cell_angle_alpha   97.70104530
_cell_angle_beta   101.27838045
_cell_angle_gamma   105.29289832
_symmetry_Int_Tables_number   1
_chemical_formula_structural   Sr
_chemical_formula_sum   Sr10
_cell_volume   227.26253831
_cell_formula_units_Z   10
loop_
 _symmetry_equiv_pos_site_id
 _symmetry_equiv_pos_as_xyz
  1  'x, y, z'
loop_
 _atom_site_type_symbol
 _atom_site_label
 _atom_site_symmetry_multiplicity
 _atom_site_fract_x
 _atom_site_fract_y
 _atom_site_fract_z
 _atom_site_occupancy
  Sr  Sr0  1  0.125957  0.999523  0.400202  1
  Sr  Sr1  1  0.149242  0.965952  0.069499  1
  Sr  Sr2  1  0.281162  0.573825  0.475270  1
  Sr  Sr3  1  0.331192  0.320542  0.800193  1
  Sr  Sr4  1  0.537804  0.910462  0.864170  1
  Sr  Sr5  1  0.566259  0.676783  0.187519  1
  Sr  Sr6  1  0.677859  0.264559  0.310982  1
  Sr  Sr7  1  0.755613  0.024441  0.600561  1
  Sr  Sr8  1  0.898569  0.605610  0.708799  1
  Sr  Sr9  1  0.931038  0.370650  0.056900  1
