# generated using pymatgen
data_Sr
_symmetry_space_group_name_H-M   P-1
_cell_length_a   3.84253234
_cell_length_b   3.93835393
_cell_length_c   6.51829890
_cell_angle_alpha   102.58937731
_cell_angle_beta   101.02848078
_cell_angle_gamma   98.10256450
_symmetry_Int_Tables_number   2
_chemical_formula_structural   Sr
_chemical_formula_sum   Sr3
_cell_volume   92.76008173
_cell_formula_units_Z   3
loop_
 _symmetry_equiv_pos_site_id
 _symmetry_equiv_pos_as_xyz
  1  'x, y, z'
  2  '-x, -y, -z'
loop_
 _atom_site_type_symbol
 _atom_site_label
 _atom_site_symmetry_multiplicity
 _atom_site_fract_x
 _atom_site_fract_y
 _atom_site_fract_z
 _atom_site_occupancy
  Sr  Sr0  2  0.358031  0.282534  0.662553  1
  Sr  Sr1  1  0.000000  0.000000  0.000000  1
