# generated using pymatgen
data_Sr
_symmetry_space_group_name_H-M   P6_422
_cell_length_a   3.58799344
_cell_length_b   3.58799344
_cell_length_c   9.53780764
_cell_angle_alpha   90.00000000
_cell_angle_beta   90.00000000
_cell_angle_gamma   120.00000000
_symmetry_Int_Tables_number   181
_chemical_formula_structural   Sr
_chemical_formula_sum   Sr3
_cell_volume   106.33652711
_cell_formula_units_Z   3
loop_
 _symmetry_equiv_pos_site_id
 _symmetry_equiv_pos_as_xyz
  1  'x, y, z'
  2  'x-y, x, z+2/3'
  3  '-y, x-y, z+1/3'
  4  '-x, -y, z'
  5  '-x+y, -x, z+2/3'
  6  'y, -x+y, z+1/3'
  7  '-y, -x, -z+1/3'
  8  '-x, -x+y, -z+2/3'
  9  '-x+y, y, -z'
  10  'y, x, -z+1/3'
  11  'x, x-y, -z+2/3'
  12  'x-y, -y, -z'
loop_
 _atom_site_type_symbol
 _atom_site_label
 _atom_site_symmetry_multiplicity
 _atom_site_fract_x
 _atom_site_fract_y
 _atom_site_fract_z
 _atom_site_occupancy
  Sr  Sr0  3  0.000000  0.500000  0.833333  1
