# generated using pymatgen
data_Sr
_symmetry_space_group_name_H-M   P2_1
_cell_length_a   5.60896889
_cell_length_b   6.18115156
_cell_length_c   5.83625051
_cell_angle_alpha   90.00000000
_cell_angle_beta   113.48924799
_cell_angle_gamma   90.00000000
_symmetry_Int_Tables_number   4
_chemical_formula_structural   Sr
_chemical_formula_sum   Sr8
_cell_volume   185.57503986
_cell_formula_units_Z   8
loop_
 _symmetry_equiv_pos_site_id
 _symmetry_equiv_pos_as_xyz
  1  'x, y, z'
  2  '-x, y+1/2, -z'
loop_
 _atom_site_type_symbol
 _atom_site_label
 _atom_site_symmetry_multiplicity
 _atom_site_fract_x
 _atom_site_fract_y
 _atom_site_fract_z
 _atom_site_occupancy
  Sr  Sr0  2  0.058338  0.704995  0.081344  1
  Sr  Sr1  2  0.080329  0.335247  0.423521  1
  Sr  Sr2  2  0.393406  0.959469  0.537943  1
  Sr  Sr3  2  0.494538  0.587459  0.924400  1
