# generated using pymatgen
data_Sr
_symmetry_space_group_name_H-M   P1
_cell_length_a   5.53512641
_cell_length_b   5.57163442
_cell_length_c   13.21013865
_cell_angle_alpha   96.79116776
_cell_angle_beta   96.62616701
_cell_angle_gamma   107.08855326
_symmetry_Int_Tables_number   1
_chemical_formula_structural   Sr
_chemical_formula_sum   Sr18
_cell_volume   381.81029802
_cell_formula_units_Z   18
loop_
 _symmetry_equiv_pos_site_id
 _symmetry_equiv_pos_as_xyz
  1  'x, y, z'
loop_
 _atom_site_type_symbol
 _atom_site_label
 _atom_site_symmetry_multiplicity
 _atom_site_fract_x
 _atom_site_fract_y
 _atom_site_fract_z
 _atom_site_occupancy
  Sr  Sr0  1  0.055612  0.806609  0.053311  1
  Sr  Sr1  1  0.113343  0.658894  0.823685  1
  Sr  Sr2  1  0.195202  0.352731  0.091064  1
  Sr  Sr3  1  0.208305  0.051829  0.263275  1
  Sr  Sr4  1  0.210399  0.571407  0.313058  1
  Sr  Sr5  1  0.353252  0.510097  0.528422  1
  Sr  Sr6  1  0.368531  0.110104  0.704750  1
  Sr  Sr7  1  0.410638  0.005407  0.487622  1
  Sr  Sr8  1  0.537772  0.881442  0.999199  1
  Sr  Sr9  1  0.554428  0.370766  0.925496  1
  Sr  Sr10  1  0.568067  0.682209  0.739795  1
  Sr  Sr11  1  0.648430  0.871172  0.214911  1
  Sr  Sr12  1  0.717585  0.455034  0.367482  1
  Sr  Sr13  1  0.724028  0.367862  0.145840  1
  Sr  Sr14  1  0.876582  0.210205  0.645895  1
  Sr  Sr15  1  0.886347  0.031592  0.425528  1
  Sr  Sr16  1  0.918863  0.667437  0.575994  1
  Sr  Sr17  1  0.979633  0.164125  0.879415  1
