# generated using pymatgen
data_Sr
_symmetry_space_group_name_H-M   P1
_cell_length_a   4.86160630
_cell_length_b   5.90325248
_cell_length_c   6.04325397
_cell_angle_alpha   118.12724373
_cell_angle_beta   93.13247426
_cell_angle_gamma   110.92520078
_symmetry_Int_Tables_number   1
_chemical_formula_structural   Sr
_chemical_formula_sum   Sr4
_cell_volume   137.53135096
_cell_formula_units_Z   4
loop_
 _symmetry_equiv_pos_site_id
 _symmetry_equiv_pos_as_xyz
  1  'x, y, z'
loop_
 _atom_site_type_symbol
 _atom_site_label
 _atom_site_symmetry_multiplicity
 _atom_site_fract_x
 _atom_site_fract_y
 _atom_site_fract_z
 _atom_site_occupancy
  Sr  Sr0  1  0.205724  0.563543  0.080570  1
  Sr  Sr1  1  0.404666  0.074025  0.913188  1
  Sr  Sr2  1  0.643179  0.523607  0.601128  1
  Sr  Sr3  1  0.918662  0.018292  0.342705  1
