# generated using pymatgen
data_Sr
_symmetry_space_group_name_H-M   P1
_cell_length_a   5.68651625
_cell_length_b   5.78798879
_cell_length_c   6.06685925
_cell_angle_alpha   86.67610270
_cell_angle_beta   83.25881581
_cell_angle_gamma   67.72748636
_symmetry_Int_Tables_number   1
_chemical_formula_structural   Sr
_chemical_formula_sum   Sr8
_cell_volume   183.48634750
_cell_formula_units_Z   8
loop_
 _symmetry_equiv_pos_site_id
 _symmetry_equiv_pos_as_xyz
  1  'x, y, z'
loop_
 _atom_site_type_symbol
 _atom_site_label
 _atom_site_symmetry_multiplicity
 _atom_site_fract_x
 _atom_site_fract_y
 _atom_site_fract_z
 _atom_site_occupancy
  Sr  Sr0  1  0.159751  0.488389  0.782079  1
  Sr  Sr1  1  0.216352  0.073972  0.449012  1
  Sr  Sr2  1  0.291524  0.880915  0.905938  1
  Sr  Sr3  1  0.294125  0.553875  0.287639  1
  Sr  Sr4  1  0.664300  0.392869  0.612348  1
  Sr  Sr5  1  0.699214  0.032952  0.989467  1
  Sr  Sr6  1  0.769594  0.836471  0.465833  1
  Sr  Sr7  1  0.826267  0.418059  0.132427  1
