# generated using pymatgen
data_Sr
_symmetry_space_group_name_H-M   P1
_cell_length_a   5.84110784
_cell_length_b   5.91667961
_cell_length_c   6.00710513
_cell_angle_alpha   64.91044380
_cell_angle_beta   65.70213158
_cell_angle_gamma   64.62678217
_symmetry_Int_Tables_number   1
_chemical_formula_structural   Sr
_chemical_formula_sum   Sr7
_cell_volume   163.04499848
_cell_formula_units_Z   7
loop_
 _symmetry_equiv_pos_site_id
 _symmetry_equiv_pos_as_xyz
  1  'x, y, z'
loop_
 _atom_site_type_symbol
 _atom_site_label
 _atom_site_symmetry_multiplicity
 _atom_site_fract_x
 _atom_site_fract_y
 _atom_site_fract_z
 _atom_site_occupancy
  Sr  Sr0  1  0.049027  0.894305  0.073719  1
  Sr  Sr1  1  0.220527  0.455812  0.894322  1
  Sr  Sr2  1  0.234940  0.310203  0.489000  1
  Sr  Sr3  1  0.457253  0.864296  0.242468  1
  Sr  Sr4  1  0.667464  0.669175  0.677076  1
  Sr  Sr5  1  0.714308  0.374749  0.142992  1
  Sr  Sr6  1  0.822335  0.093821  0.626229  1
