# generated using pymatgen
data_Sr
_symmetry_space_group_name_H-M   P-1
_cell_length_a   3.75879652
_cell_length_b   5.98792848
_cell_length_c   6.00222362
_cell_angle_alpha   100.67830924
_cell_angle_beta   95.23930108
_cell_angle_gamma   95.46123384
_symmetry_Int_Tables_number   2
_chemical_formula_structural   Sr
_chemical_formula_sum   Sr4
_cell_volume   131.33023924
_cell_formula_units_Z   4
loop_
 _symmetry_equiv_pos_site_id
 _symmetry_equiv_pos_as_xyz
  1  'x, y, z'
  2  '-x, -y, -z'
loop_
 _atom_site_type_symbol
 _atom_site_label
 _atom_site_symmetry_multiplicity
 _atom_site_fract_x
 _atom_site_fract_y
 _atom_site_fract_z
 _atom_site_occupancy
  Sr  Sr0  2  0.018061  0.721838  0.715954  1
  Sr  Sr1  2  0.483289  0.739906  0.240174  1
