# generated using pymatgen
data_Sr
_symmetry_space_group_name_H-M   P2_1/m
_cell_length_a   3.22404583
_cell_length_b   4.42226500
_cell_length_c   12.52043570
_cell_angle_alpha   90.00000000
_cell_angle_beta   97.29965142
_cell_angle_gamma   90.00000000
_symmetry_Int_Tables_number   11
_chemical_formula_structural   Sr
_chemical_formula_sum   Sr8
_cell_volume   177.06438231
_cell_formula_units_Z   8
loop_
 _symmetry_equiv_pos_site_id
 _symmetry_equiv_pos_as_xyz
  1  'x, y, z'
  2  '-x, -y, -z'
  3  '-x, y+1/2, -z'
  4  'x, -y+1/2, z'
loop_
 _atom_site_type_symbol
 _atom_site_label
 _atom_site_symmetry_multiplicity
 _atom_site_fract_x
 _atom_site_fract_y
 _atom_site_fract_z
 _atom_site_occupancy
  Sr  Sr0  2  0.098050  0.750000  0.687278  1
  Sr  Sr1  2  0.241452  0.750000  0.931658  1
  Sr  Sr2  2  0.362799  0.750000  0.174658  1
  Sr  Sr3  2  0.460846  0.750000  0.420809  1
