# generated using pymatgen
data_Sr
_symmetry_space_group_name_H-M   P1
_cell_length_a   5.80287648
_cell_length_b   6.34482386
_cell_length_c   7.22578849
_cell_angle_alpha   89.26012552
_cell_angle_beta   80.02324179
_cell_angle_gamma   73.63989647
_symmetry_Int_Tables_number   1
_chemical_formula_structural   Sr
_chemical_formula_sum   Sr12
_cell_volume   251.22734497
_cell_formula_units_Z   12
loop_
 _symmetry_equiv_pos_site_id
 _symmetry_equiv_pos_as_xyz
  1  'x, y, z'
loop_
 _atom_site_type_symbol
 _atom_site_label
 _atom_site_symmetry_multiplicity
 _atom_site_fract_x
 _atom_site_fract_y
 _atom_site_fract_z
 _atom_site_occupancy
  Sr  Sr0  1  0.011745  0.079152  0.729161  1
  Sr  Sr1  1  0.064721  0.568719  0.743339  1
  Sr  Sr2  1  0.158897  0.053804  0.145998  1
  Sr  Sr3  1  0.180840  0.532867  0.148035  1
  Sr  Sr4  1  0.366699  0.753120  0.407820  1
  Sr  Sr5  1  0.420902  0.227799  0.448879  1
  Sr  Sr6  1  0.494499  0.736305  0.800593  1
  Sr  Sr7  1  0.494985  0.196068  0.822915  1
  Sr  Sr8  1  0.707843  0.421262  0.077830  1
  Sr  Sr9  1  0.748064  0.891252  0.106063  1
  Sr  Sr10  1  0.828620  0.385551  0.452994  1
  Sr  Sr11  1  0.831716  0.851730  0.482012  1
