# generated using pymatgen
data_Sr
_symmetry_space_group_name_H-M   P1
_cell_length_a   5.57222147
_cell_length_b   7.79850627
_cell_length_c   7.88864724
_cell_angle_alpha   118.79375032
_cell_angle_beta   98.46440108
_cell_angle_gamma   98.20823298
_symmetry_Int_Tables_number   1
_chemical_formula_structural   Sr
_chemical_formula_sum   Sr14
_cell_volume   287.97571194
_cell_formula_units_Z   14
loop_
 _symmetry_equiv_pos_site_id
 _symmetry_equiv_pos_as_xyz
  1  'x, y, z'
loop_
 _atom_site_type_symbol
 _atom_site_label
 _atom_site_symmetry_multiplicity
 _atom_site_fract_x
 _atom_site_fract_y
 _atom_site_fract_z
 _atom_site_occupancy
  Sr  Sr0  1  0.214755  0.112580  0.512129  1
  Sr  Sr1  1  0.231863  0.552925  0.819911  1
  Sr  Sr2  1  0.235305  0.977893  0.080241  1
  Sr  Sr3  1  0.376128  0.874345  0.708547  1
  Sr  Sr4  1  0.404422  0.311274  0.966589  1
  Sr  Sr5  1  0.422593  0.744064  0.281532  1
  Sr  Sr6  1  0.436304  0.397709  0.368838  1
  Sr  Sr7  1  0.733460  0.640436  0.826416  1
  Sr  Sr8  1  0.735836  0.225744  0.612839  1
  Sr  Sr9  1  0.756109  0.035502  0.182498  1
  Sr  Sr10  1  0.854547  0.853932  0.629936  1
  Sr  Sr11  1  0.902311  0.232352  0.974127  1
  Sr  Sr12  1  0.904013  0.642696  0.182521  1
  Sr  Sr13  1  0.971016  0.467925  0.421846  1
