# generated using pymatgen
data_Sr
_symmetry_space_group_name_H-M   P2/c
_cell_length_a   3.46368419
_cell_length_b   5.96672486
_cell_length_c   4.65751586
_cell_angle_alpha   90.00000000
_cell_angle_beta   127.91364911
_cell_angle_gamma   90.00000000
_symmetry_Int_Tables_number   13
_chemical_formula_structural   Sr
_chemical_formula_sum   Sr2
_cell_volume   75.94013504
_cell_formula_units_Z   2
loop_
 _symmetry_equiv_pos_site_id
 _symmetry_equiv_pos_as_xyz
  1  'x, y, z'
  2  '-x, -y, -z'
  3  '-x, y, -z+1/2'
  4  'x, -y, z+1/2'
loop_
 _atom_site_type_symbol
 _atom_site_label
 _atom_site_symmetry_multiplicity
 _atom_site_fract_x
 _atom_site_fract_y
 _atom_site_fract_z
 _atom_site_occupancy
  Sr  Sr0  2  0.000000  0.198479  0.750000  1
