# generated using pymatgen
data_Sr
_symmetry_space_group_name_H-M   P1
_cell_length_a   5.47290527
_cell_length_b   5.67464730
_cell_length_c   9.34028523
_cell_angle_alpha   87.72040574
_cell_angle_beta   89.68334927
_cell_angle_gamma   72.17568043
_symmetry_Int_Tables_number   1
_chemical_formula_structural   Sr
_chemical_formula_sum   Sr12
_cell_volume   275.93021117
_cell_formula_units_Z   12
loop_
 _symmetry_equiv_pos_site_id
 _symmetry_equiv_pos_as_xyz
  1  'x, y, z'
loop_
 _atom_site_type_symbol
 _atom_site_label
 _atom_site_symmetry_multiplicity
 _atom_site_fract_x
 _atom_site_fract_y
 _atom_site_fract_z
 _atom_site_occupancy
  Sr  Sr0  1  0.192631  0.060449  0.805707  1
  Sr  Sr1  1  0.204546  0.563265  0.087482  1
  Sr  Sr2  1  0.261835  0.307980  0.401704  1
  Sr  Sr3  1  0.269164  0.802061  0.517000  1
  Sr  Sr4  1  0.374932  0.473732  0.792533  1
  Sr  Sr5  1  0.391948  0.987132  0.120614  1
  Sr  Sr6  1  0.685354  0.066437  0.582622  1
  Sr  Sr7  1  0.697374  0.542369  0.301156  1
  Sr  Sr8  1  0.770589  0.797650  0.902214  1
  Sr  Sr9  1  0.785110  0.301125  0.009926  1
  Sr  Sr10  1  0.870158  0.480749  0.616992  1
  Sr  Sr11  1  0.889476  0.970893  0.284517  1
