# generated using pymatgen
data_Sr
_symmetry_space_group_name_H-M   P1
_cell_length_a   5.89945653
_cell_length_b   6.18481999
_cell_length_c   6.41919651
_cell_angle_alpha   91.86870836
_cell_angle_beta   96.33366146
_cell_angle_gamma   117.62993972
_symmetry_Int_Tables_number   1
_chemical_formula_structural   Sr
_chemical_formula_sum   Sr9
_cell_volume   205.30587558
_cell_formula_units_Z   9
loop_
 _symmetry_equiv_pos_site_id
 _symmetry_equiv_pos_as_xyz
  1  'x, y, z'
loop_
 _atom_site_type_symbol
 _atom_site_label
 _atom_site_symmetry_multiplicity
 _atom_site_fract_x
 _atom_site_fract_y
 _atom_site_fract_z
 _atom_site_occupancy
  Sr  Sr0  1  0.061980  0.173020  0.649047  1
  Sr  Sr1  1  0.113651  0.717100  0.897252  1
  Sr  Sr2  1  0.315968  0.010924  0.288659  1
  Sr  Sr3  1  0.338940  0.399448  0.108212  1
  Sr  Sr4  1  0.408264  0.703741  0.534776  1
  Sr  Sr5  1  0.604819  0.295691  0.740928  1
  Sr  Sr6  1  0.720049  0.881615  0.950687  1
  Sr  Sr7  1  0.829887  0.689437  0.390511  1
  Sr  Sr8  1  0.836953  0.251550  0.264088  1
