# generated using pymatgen
data_Sr
_symmetry_space_group_name_H-M   P1
_cell_length_a   3.92789592
_cell_length_b   4.04373840
_cell_length_c   7.80664397
_cell_angle_alpha   75.65479005
_cell_angle_beta   85.69724337
_cell_angle_gamma   87.68078797
_symmetry_Int_Tables_number   1
_chemical_formula_structural   Sr
_chemical_formula_sum   Sr3
_cell_volume   119.76049025
_cell_formula_units_Z   3
loop_
 _symmetry_equiv_pos_site_id
 _symmetry_equiv_pos_as_xyz
  1  'x, y, z'
loop_
 _atom_site_type_symbol
 _atom_site_label
 _atom_site_symmetry_multiplicity
 _atom_site_fract_x
 _atom_site_fract_y
 _atom_site_fract_z
 _atom_site_occupancy
  Sr  Sr0  1  0.067624  0.537435  0.070193  1
  Sr  Sr1  1  0.603406  0.927874  0.347617  1
  Sr  Sr2  1  0.634863  0.139806  0.773308  1
