# generated using pymatgen
data_Sr
_symmetry_space_group_name_H-M   P4/nmm
_cell_length_a   4.56718597
_cell_length_b   4.56718597
_cell_length_c   4.55375329
_cell_angle_alpha   90.00000000
_cell_angle_beta   90.00000000
_cell_angle_gamma   90.00000000
_symmetry_Int_Tables_number   129
_chemical_formula_structural   Sr
_chemical_formula_sum   Sr4
_cell_volume   94.98759468
_cell_formula_units_Z   4
loop_
 _symmetry_equiv_pos_site_id
 _symmetry_equiv_pos_as_xyz
  1  'x, y, z'
  2  '-x, -y, -z'
  3  '-y, x, z'
  4  'y, -x, -z'
  5  '-x, -y, z'
  6  'x, y, -z'
  7  'y, -x, z'
  8  '-y, x, -z'
  9  'x, -y, -z'
  10  '-x, y, z'
  11  '-y, -x, -z'
  12  'y, x, z'
  13  '-x, y, -z'
  14  'x, -y, z'
  15  'y, x, -z'
  16  '-y, -x, z'
  17  'z, x, y'
  18  '-z, -x, -y'
  19  'z, -y, x'
  20  '-z, y, -x'
  21  'z, -x, -y'
  22  '-z, x, y'
  23  'z, y, -x'
  24  '-z, -y, x'
  25  '-z, x, -y'
  26  'z, -x, y'
  27  '-z, -y, -x'
  28  'z, y, x'
  29  '-z, -x, y'
  30  'z, x, -y'
  31  '-z, y, x'
  32  'z, -y, -x'
  33  'y, z, x'
  34  '-y, -z, -x'
  35  'x, z, -y'
  36  '-x, -z, y'
  37  '-y, z, -x'
  38  'y, -z, x'
  39  '-x, z, y'
  40  'x, -z, -y'
  41  '-y, -z, x'
  42  'y, z, -x'
  43  '-x, -z, -y'
  44  'x, z, y'
  45  'y, -z, -x'
  46  '-y, z, x'
  47  'x, -z, y'
  48  '-x, z, -y'
  49  'x+1/2, y, z+1/2'
  50  '-x+1/2, -y, -z+1/2'
  51  '-y+1/2, x, z+1/2'
  52  'y+1/2, -x, -z+1/2'
  53  '-x+1/2, -y, z+1/2'
  54  'x+1/2, y, -z+1/2'
  55  'y+1/2, -x, z+1/2'
  56  '-y+1/2, x, -z+1/2'
  57  'x+1/2, -y, -z+1/2'
  58  '-x+1/2, y, z+1/2'
  59  '-y+1/2, -x, -z+1/2'
  60  'y+1/2, x, z+1/2'
  61  '-x+1/2, y, -z+1/2'
  62  'x+1/2, -y, z+1/2'
  63  'y+1/2, x, -z+1/2'
  64  '-y+1/2, -x, z+1/2'
  65  'z+1/2, x, y+1/2'
  66  '-z+1/2, -x, -y+1/2'
  67  'z+1/2, -y, x+1/2'
  68  '-z+1/2, y, -x+1/2'
  69  'z+1/2, -x, -y+1/2'
  70  '-z+1/2, x, y+1/2'
  71  'z+1/2, y, -x+1/2'
  72  '-z+1/2, -y, x+1/2'
  73  '-z+1/2, x, -y+1/2'
  74  'z+1/2, -x, y+1/2'
  75  '-z+1/2, -y, -x+1/2'
  76  'z+1/2, y, x+1/2'
  77  '-z+1/2, -x, y+1/2'
  78  'z+1/2, x, -y+1/2'
  79  '-z+1/2, y, x+1/2'
  80  'z+1/2, -y, -x+1/2'
  81  'y+1/2, z, x+1/2'
  82  '-y+1/2, -z, -x+1/2'
  83  'x+1/2, z, -y+1/2'
  84  '-x+1/2, -z, y+1/2'
  85  '-y+1/2, z, -x+1/2'
  86  'y+1/2, -z, x+1/2'
  87  '-x+1/2, z, y+1/2'
  88  'x+1/2, -z, -y+1/2'
  89  '-y+1/2, -z, x+1/2'
  90  'y+1/2, z, -x+1/2'
  91  '-x+1/2, -z, -y+1/2'
  92  'x+1/2, z, y+1/2'
  93  'y+1/2, -z, -x+1/2'
  94  '-y+1/2, z, x+1/2'
  95  'x+1/2, -z, y+1/2'
  96  '-x+1/2, z, -y+1/2'
  97  'x, y+1/2, z+1/2'
  98  '-x, -y+1/2, -z+1/2'
  99  '-y, x+1/2, z+1/2'
  100  'y, -x+1/2, -z+1/2'
  101  '-x, -y+1/2, z+1/2'
  102  'x, y+1/2, -z+1/2'
  103  'y, -x+1/2, z+1/2'
  104  '-y, x+1/2, -z+1/2'
  105  'x, -y+1/2, -z+1/2'
  106  '-x, y+1/2, z+1/2'
  107  '-y, -x+1/2, -z+1/2'
  108  'y, x+1/2, z+1/2'
  109  '-x, y+1/2, -z+1/2'
  110  'x, -y+1/2, z+1/2'
  111  'y, x+1/2, -z+1/2'
  112  '-y, -x+1/2, z+1/2'
  113  'z, x+1/2, y+1/2'
  114  '-z, -x+1/2, -y+1/2'
  115  'z, -y+1/2, x+1/2'
  116  '-z, y+1/2, -x+1/2'
  117  'z, -x+1/2, -y+1/2'
  118  '-z, x+1/2, y+1/2'
  119  'z, y+1/2, -x+1/2'
  120  '-z, -y+1/2, x+1/2'
  121  '-z, x+1/2, -y+1/2'
  122  'z, -x+1/2, y+1/2'
  123  '-z, -y+1/2, -x+1/2'
  124  'z, y+1/2, x+1/2'
  125  '-z, -x+1/2, y+1/2'
  126  'z, x+1/2, -y+1/2'
  127  '-z, y+1/2, x+1/2'
  128  'z, -y+1/2, -x+1/2'
  129  'y, z+1/2, x+1/2'
  130  '-y, -z+1/2, -x+1/2'
  131  'x, z+1/2, -y+1/2'
  132  '-x, -z+1/2, y+1/2'
  133  '-y, z+1/2, -x+1/2'
  134  'y, -z+1/2, x+1/2'
  135  '-x, z+1/2, y+1/2'
  136  'x, -z+1/2, -y+1/2'
  137  '-y, -z+1/2, x+1/2'
  138  'y, z+1/2, -x+1/2'
  139  '-x, -z+1/2, -y+1/2'
  140  'x, z+1/2, y+1/2'
  141  'y, -z+1/2, -x+1/2'
  142  '-y, z+1/2, x+1/2'
  143  'x, -z+1/2, y+1/2'
  144  '-x, z+1/2, -y+1/2'
  145  'x+1/2, y+1/2, z'
  146  '-x+1/2, -y+1/2, -z'
  147  '-y+1/2, x+1/2, z'
  148  'y+1/2, -x+1/2, -z'
  149  '-x+1/2, -y+1/2, z'
  150  'x+1/2, y+1/2, -z'
  151  'y+1/2, -x+1/2, z'
  152  '-y+1/2, x+1/2, -z'
  153  'x+1/2, -y+1/2, -z'
  154  '-x+1/2, y+1/2, z'
  155  '-y+1/2, -x+1/2, -z'
  156  'y+1/2, x+1/2, z'
  157  '-x+1/2, y+1/2, -z'
  158  'x+1/2, -y+1/2, z'
  159  'y+1/2, x+1/2, -z'
  160  '-y+1/2, -x+1/2, z'
  161  'z+1/2, x+1/2, y'
  162  '-z+1/2, -x+1/2, -y'
  163  'z+1/2, -y+1/2, x'
  164  '-z+1/2, y+1/2, -x'
  165  'z+1/2, -x+1/2, -y'
  166  '-z+1/2, x+1/2, y'
  167  'z+1/2, y+1/2, -x'
  168  '-z+1/2, -y+1/2, x'
  169  '-z+1/2, x+1/2, -y'
  170  'z+1/2, -x+1/2, y'
  171  '-z+1/2, -y+1/2, -x'
  172  'z+1/2, y+1/2, x'
  173  '-z+1/2, -x+1/2, y'
  174  'z+1/2, x+1/2, -y'
  175  '-z+1/2, y+1/2, x'
  176  'z+1/2, -y+1/2, -x'
  177  'y+1/2, z+1/2, x'
  178  '-y+1/2, -z+1/2, -x'
  179  'x+1/2, z+1/2, -y'
  180  '-x+1/2, -z+1/2, y'
  181  '-y+1/2, z+1/2, -x'
  182  'y+1/2, -z+1/2, x'
  183  '-x+1/2, z+1/2, y'
  184  'x+1/2, -z+1/2, -y'
  185  '-y+1/2, -z+1/2, x'
  186  'y+1/2, z+1/2, -x'
  187  '-x+1/2, -z+1/2, -y'
  188  'x+1/2, z+1/2, y'
  189  'y+1/2, -z+1/2, -x'
  190  '-y+1/2, z+1/2, x'
  191  'x+1/2, -z+1/2, y'
  192  '-x+1/2, z+1/2, -y'
loop_
 _atom_site_type_symbol
 _atom_site_label
 _atom_site_symmetry_multiplicity
 _atom_site_fract_x
 _atom_site_fract_y
 _atom_site_fract_z
 _atom_site_occupancy
  Sr  Sr0  4  0.000000  0.000000  0.000000  1
