# generated using pymatgen
data_Sr
_symmetry_space_group_name_H-M   P1
_cell_length_a   3.83626348
_cell_length_b   5.50608450
_cell_length_c   5.69526907
_cell_angle_alpha   69.83872836
_cell_angle_beta   85.80014558
_cell_angle_gamma   79.57865360
_symmetry_Int_Tables_number   1
_chemical_formula_structural   Sr
_chemical_formula_sum   Sr3
_cell_volume   111.05815791
_cell_formula_units_Z   3
loop_
 _symmetry_equiv_pos_site_id
 _symmetry_equiv_pos_as_xyz
  1  'x, y, z'
loop_
 _atom_site_type_symbol
 _atom_site_label
 _atom_site_symmetry_multiplicity
 _atom_site_fract_x
 _atom_site_fract_y
 _atom_site_fract_z
 _atom_site_occupancy
  Sr  Sr0  1  0.160757  0.019845  0.193316  1
  Sr  Sr1  1  0.500229  0.320044  0.597758  1
  Sr  Sr2  1  0.922496  0.751910  0.807738  1
