# generated using pymatgen
data_Sr
_symmetry_space_group_name_H-M   P-1
_cell_length_a   5.82663608
_cell_length_b   5.82916454
_cell_length_c   7.56545330
_cell_angle_alpha   94.69583792
_cell_angle_beta   103.97121555
_cell_angle_gamma   90.71126478
_symmetry_Int_Tables_number   2
_chemical_formula_structural   Sr
_chemical_formula_sum   Sr12
_cell_volume   248.38014443
_cell_formula_units_Z   12
loop_
 _symmetry_equiv_pos_site_id
 _symmetry_equiv_pos_as_xyz
  1  'x, y, z'
  2  '-x, -y, -z'
loop_
 _atom_site_type_symbol
 _atom_site_label
 _atom_site_symmetry_multiplicity
 _atom_site_fract_x
 _atom_site_fract_y
 _atom_site_fract_z
 _atom_site_occupancy
  Sr  Sr0  2  0.099892  0.657662  0.899865  1
  Sr  Sr1  2  0.129655  0.160848  0.795964  1
  Sr  Sr2  2  0.153228  0.319454  0.445760  1
  Sr  Sr3  2  0.306876  0.808580  0.481673  1
  Sr  Sr4  2  0.392133  0.013223  0.160698  1
  Sr  Sr5  2  0.477122  0.492693  0.190760  1
