# generated using pymatgen
data_Sr
_symmetry_space_group_name_H-M   P1
_cell_length_a   3.35185205
_cell_length_b   5.41996839
_cell_length_c   5.84962583
_cell_angle_alpha   63.32637070
_cell_angle_beta   86.34843051
_cell_angle_gamma   79.53407222
_symmetry_Int_Tables_number   1
_chemical_formula_structural   Sr
_chemical_formula_sum   Sr3
_cell_volume   93.36119955
_cell_formula_units_Z   3
loop_
 _symmetry_equiv_pos_site_id
 _symmetry_equiv_pos_as_xyz
  1  'x, y, z'
loop_
 _atom_site_type_symbol
 _atom_site_label
 _atom_site_symmetry_multiplicity
 _atom_site_fract_x
 _atom_site_fract_y
 _atom_site_fract_z
 _atom_site_occupancy
  Sr  Sr0  1  0.181373  0.472916  0.846424  1
  Sr  Sr1  1  0.576437  0.215918  0.488635  1
  Sr  Sr2  1  0.783379  0.854655  0.194126  1
