# generated using pymatgen
data_Sr
_symmetry_space_group_name_H-M   P1
_cell_length_a   3.76813580
_cell_length_b   5.78483461
_cell_length_c   5.86697071
_cell_angle_alpha   68.19411728
_cell_angle_beta   80.66450446
_cell_angle_gamma   78.98700402
_symmetry_Int_Tables_number   1
_chemical_formula_structural   Sr
_chemical_formula_sum   Sr3
_cell_volume   115.96532130
_cell_formula_units_Z   3
loop_
 _symmetry_equiv_pos_site_id
 _symmetry_equiv_pos_as_xyz
  1  'x, y, z'
loop_
 _atom_site_type_symbol
 _atom_site_label
 _atom_site_symmetry_multiplicity
 _atom_site_fract_x
 _atom_site_fract_y
 _atom_site_fract_z
 _atom_site_occupancy
  Sr  Sr0  1  0.309801  0.910091  0.244818  1
  Sr  Sr1  1  0.558881  0.166724  0.612994  1
  Sr  Sr2  1  0.843192  0.474278  0.965321  1
