# generated using pymatgen
data_Sr
_symmetry_space_group_name_H-M   P1
_cell_length_a   5.03601845
_cell_length_b   6.03935221
_cell_length_c   6.18249945
_cell_angle_alpha   84.26216845
_cell_angle_beta   66.58701885
_cell_angle_gamma   66.71398113
_symmetry_Int_Tables_number   1
_chemical_formula_structural   Sr
_chemical_formula_sum   Sr5
_cell_volume   158.13434288
_cell_formula_units_Z   5
loop_
 _symmetry_equiv_pos_site_id
 _symmetry_equiv_pos_as_xyz
  1  'x, y, z'
loop_
 _atom_site_type_symbol
 _atom_site_label
 _atom_site_symmetry_multiplicity
 _atom_site_fract_x
 _atom_site_fract_y
 _atom_site_fract_z
 _atom_site_occupancy
  Sr  Sr0  1  0.164639  0.006586  0.984465  1
  Sr  Sr1  1  0.368564  0.192806  0.401619  1
  Sr  Sr2  1  0.571005  0.447605  0.757668  1
  Sr  Sr3  1  0.729134  0.585870  0.208938  1
  Sr  Sr4  1  0.951153  0.836926  0.601819  1
