# generated using pymatgen
data_Sr
_symmetry_space_group_name_H-M   P-1
_cell_length_a   5.85433265
_cell_length_b   6.43649121
_cell_length_c   7.87914138
_cell_angle_alpha   77.95317444
_cell_angle_beta   69.30844335
_cell_angle_gamma   73.46576989
_symmetry_Int_Tables_number   2
_chemical_formula_structural   Sr
_chemical_formula_sum   Sr12
_cell_volume   264.31756812
_cell_formula_units_Z   12
loop_
 _symmetry_equiv_pos_site_id
 _symmetry_equiv_pos_as_xyz
  1  'x, y, z'
  2  '-x, -y, -z'
loop_
 _atom_site_type_symbol
 _atom_site_label
 _atom_site_symmetry_multiplicity
 _atom_site_fract_x
 _atom_site_fract_y
 _atom_site_fract_z
 _atom_site_occupancy
  Sr  Sr0  2  0.118460  0.044802  0.714063  1
  Sr  Sr1  2  0.121584  0.542361  0.702589  1
  Sr  Sr2  2  0.284352  0.675793  0.007906  1
  Sr  Sr3  2  0.292812  0.172991  0.995007  1
  Sr  Sr4  2  0.331169  0.835646  0.375333  1
  Sr  Sr5  2  0.346171  0.302783  0.367723  1
