# generated using pymatgen
data_Sr
_symmetry_space_group_name_H-M   Cm
_cell_length_a   16.21923415
_cell_length_b   3.21633707
_cell_length_c   7.78577496
_cell_angle_alpha   90.00000000
_cell_angle_beta   105.75324924
_cell_angle_gamma   90.00000000
_symmetry_Int_Tables_number   8
_chemical_formula_structural   Sr
_chemical_formula_sum   Sr18
_cell_volume   390.90150219
_cell_formula_units_Z   18
loop_
 _symmetry_equiv_pos_site_id
 _symmetry_equiv_pos_as_xyz
  1  'x, y, z'
  2  'x, -y, z'
  3  'x+1/2, y+1/2, z'
  4  'x+1/2, -y+1/2, z'
loop_
 _atom_site_type_symbol
 _atom_site_label
 _atom_site_symmetry_multiplicity
 _atom_site_fract_x
 _atom_site_fract_y
 _atom_site_fract_z
 _atom_site_occupancy
  Sr  Sr0  2  0.071356  0.000000  0.730736  1
  Sr  Sr1  2  0.096547  0.500000  0.422416  1
  Sr  Sr2  2  0.157556  0.500000  0.070306  1
  Sr  Sr3  2  0.253429  0.000000  0.409190  1
  Sr  Sr4  2  0.258619  0.500000  0.777000  1
  Sr  Sr5  2  0.329357  0.000000  0.119898  1
  Sr  Sr6  2  0.399817  0.000000  0.690737  1
  Sr  Sr7  2  0.433500  0.500000  0.399277  1
  Sr  Sr8  2  0.483684  0.500000  0.047803  1
