# generated using pymatgen
data_Sr
_symmetry_space_group_name_H-M   Pm
_cell_length_a   6.83667324
_cell_length_b   4.41089650
_cell_length_c   6.89953416
_cell_angle_alpha   90.00000000
_cell_angle_beta   90.20682699
_cell_angle_gamma   90.00000000
_symmetry_Int_Tables_number   6
_chemical_formula_structural   Sr
_chemical_formula_sum   Sr10
_cell_volume   208.06001749
_cell_formula_units_Z   10
loop_
 _symmetry_equiv_pos_site_id
 _symmetry_equiv_pos_as_xyz
  1  'x, y, z'
  2  'x, -y, z'
loop_
 _atom_site_type_symbol
 _atom_site_label
 _atom_site_symmetry_multiplicity
 _atom_site_fract_x
 _atom_site_fract_y
 _atom_site_fract_z
 _atom_site_occupancy
  Sr  Sr0  1  0.056479  0.000000  0.364216  1
  Sr  Sr1  1  0.176520  0.500000  0.074769  1
  Sr  Sr2  1  0.243964  0.000000  0.750455  1
  Sr  Sr3  1  0.359370  0.500000  0.492588  1
  Sr  Sr4  1  0.443194  0.000000  0.175845  1
  Sr  Sr5  1  0.548353  0.500000  0.862857  1
  Sr  Sr6  1  0.679765  0.000000  0.569261  1
  Sr  Sr7  1  0.731111  0.500000  0.277724  1
  Sr  Sr8  1  0.860956  0.000000  0.994636  1
  Sr  Sr9  1  0.950072  0.500000  0.681055  1
