# generated using pymatgen
data_Sr
_symmetry_space_group_name_H-M   P1
_cell_length_a   5.56843671
_cell_length_b   6.73839057
_cell_length_c   8.05264296
_cell_angle_alpha   89.36242849
_cell_angle_beta   71.57756235
_cell_angle_gamma   89.01877896
_symmetry_Int_Tables_number   1
_chemical_formula_structural   Sr
_chemical_formula_sum   Sr15
_cell_volume   286.62178301
_cell_formula_units_Z   15
loop_
 _symmetry_equiv_pos_site_id
 _symmetry_equiv_pos_as_xyz
  1  'x, y, z'
loop_
 _atom_site_type_symbol
 _atom_site_label
 _atom_site_symmetry_multiplicity
 _atom_site_fract_x
 _atom_site_fract_y
 _atom_site_fract_z
 _atom_site_occupancy
  Sr  Sr0  1  0.138396  0.116443  0.554696  1
  Sr  Sr1  1  0.184368  0.917238  0.245550  1
  Sr  Sr2  1  0.228816  0.769190  0.708345  1
  Sr  Sr3  1  0.232157  0.154692  0.951396  1
  Sr  Sr4  1  0.372656  0.413635  0.332612  1
  Sr  Sr5  1  0.464323  0.620039  0.001553  1
  Sr  Sr6  1  0.473594  0.401302  0.668799  1
  Sr  Sr7  1  0.554557  0.768043  0.372377  1
  Sr  Sr8  1  0.616074  0.137099  0.089418  1
  Sr  Sr9  1  0.641117  0.924514  0.749563  1
  Sr  Sr10  1  0.728287  0.127468  0.421812  1
  Sr  Sr11  1  0.874029  0.363845  0.811155  1
  Sr  Sr12  1  0.894126  0.780386  0.043912  1
  Sr  Sr13  1  0.917837  0.619072  0.512292  1
  Sr  Sr14  1  0.965821  0.423167  0.193676  1
