# generated using pymatgen
data_Sr
_symmetry_space_group_name_H-M   P1
_cell_length_a   5.79358169
_cell_length_b   6.01390039
_cell_length_c   8.98996607
_cell_angle_alpha   90.60007269
_cell_angle_beta   102.10755344
_cell_angle_gamma   91.49035093
_symmetry_Int_Tables_number   1
_chemical_formula_structural   Sr
_chemical_formula_sum   Sr14
_cell_volume   306.11676471
_cell_formula_units_Z   14
loop_
 _symmetry_equiv_pos_site_id
 _symmetry_equiv_pos_as_xyz
  1  'x, y, z'
loop_
 _atom_site_type_symbol
 _atom_site_label
 _atom_site_symmetry_multiplicity
 _atom_site_fract_x
 _atom_site_fract_y
 _atom_site_fract_z
 _atom_site_occupancy
  Sr  Sr0  1  0.050309  0.748781  0.669449  1
  Sr  Sr1  1  0.161210  0.559815  0.339350  1
  Sr  Sr2  1  0.166255  0.131008  0.942118  1
  Sr  Sr3  1  0.233419  0.193124  0.560463  1
  Sr  Sr4  1  0.291759  0.073061  0.253100  1
  Sr  Sr5  1  0.407833  0.609480  0.077447  1
  Sr  Sr6  1  0.453501  0.481552  0.769901  1
  Sr  Sr7  1  0.558902  0.809489  0.576281  1
  Sr  Sr8  1  0.569695  0.949155  0.868950  1
  Sr  Sr9  1  0.687475  0.418422  0.386827  1
  Sr  Sr10  1  0.767933  0.271485  0.076290  1
  Sr  Sr11  1  0.801513  0.926240  0.313415  1
  Sr  Sr12  1  0.835297  0.270673  0.684292  1
  Sr  Sr13  1  0.938356  0.685735  0.984564  1
