# generated using pymatgen
data_Sr
_symmetry_space_group_name_H-M   P1
_cell_length_a   6.37340886
_cell_length_b   7.20888474
_cell_length_c   7.24163696
_cell_angle_alpha   110.91883431
_cell_angle_beta   106.48733026
_cell_angle_gamma   106.83909965
_symmetry_Int_Tables_number   1
_chemical_formula_structural   Sr
_chemical_formula_sum   Sr14
_cell_volume   268.11169582
_cell_formula_units_Z   14
loop_
 _symmetry_equiv_pos_site_id
 _symmetry_equiv_pos_as_xyz
  1  'x, y, z'
loop_
 _atom_site_type_symbol
 _atom_site_label
 _atom_site_symmetry_multiplicity
 _atom_site_fract_x
 _atom_site_fract_y
 _atom_site_fract_z
 _atom_site_occupancy
  Sr  Sr0  1  0.055591  0.094768  0.719710  1
  Sr  Sr1  1  0.109759  0.836322  0.336988  1
  Sr  Sr2  1  0.256205  0.492660  0.124213  1
  Sr  Sr3  1  0.300017  0.239316  0.333800  1
  Sr  Sr4  1  0.341537  0.971265  0.961953  1
  Sr  Sr5  1  0.408418  0.733745  0.614976  1
  Sr  Sr6  1  0.457956  0.487661  0.842908  1
  Sr  Sr7  1  0.592719  0.137631  0.615143  1
  Sr  Sr8  1  0.656061  0.883066  0.241556  1
  Sr  Sr9  1  0.752777  0.618256  0.474226  1
  Sr  Sr10  1  0.758556  0.340277  0.087245  1
  Sr  Sr11  1  0.852338  0.982466  0.976196  1
  Sr  Sr12  1  0.943890  0.620254  0.878692  1
  Sr  Sr13  1  0.995930  0.362321  0.512000  1
