# generated using pymatgen
data_Sr
_symmetry_space_group_name_H-M   P-1
_cell_length_a   5.82391736
_cell_length_b   6.03796525
_cell_length_c   6.17976623
_cell_angle_alpha   63.17678795
_cell_angle_beta   63.68298921
_cell_angle_gamma   65.42899033
_symmetry_Int_Tables_number   2
_chemical_formula_structural   Sr
_chemical_formula_sum   Sr6
_cell_volume   167.38431324
_cell_formula_units_Z   6
loop_
 _symmetry_equiv_pos_site_id
 _symmetry_equiv_pos_as_xyz
  1  'x, y, z'
  2  '-x, -y, -z'
loop_
 _atom_site_type_symbol
 _atom_site_label
 _atom_site_symmetry_multiplicity
 _atom_site_fract_x
 _atom_site_fract_y
 _atom_site_fract_z
 _atom_site_occupancy
  Sr  Sr0  2  0.085340  0.750829  0.921382  1
  Sr  Sr1  2  0.273815  0.558585  0.400513  1
  Sr  Sr2  2  0.404810  0.078006  0.252755  1
