# generated using pymatgen
data_Sr
_symmetry_space_group_name_H-M   P1
_cell_length_a   5.88063166
_cell_length_b   5.94220374
_cell_length_c   9.17214812
_cell_angle_alpha   91.49360730
_cell_angle_beta   93.23371878
_cell_angle_gamma   117.19524887
_symmetry_Int_Tables_number   1
_chemical_formula_structural   Sr
_chemical_formula_sum   Sr13
_cell_volume   284.14023208
_cell_formula_units_Z   13
loop_
 _symmetry_equiv_pos_site_id
 _symmetry_equiv_pos_as_xyz
  1  'x, y, z'
loop_
 _atom_site_type_symbol
 _atom_site_label
 _atom_site_symmetry_multiplicity
 _atom_site_fract_x
 _atom_site_fract_y
 _atom_site_fract_z
 _atom_site_occupancy
  Sr  Sr0  1  0.018937  0.795093  0.592731  1
  Sr  Sr1  1  0.060687  0.425719  0.357882  1
  Sr  Sr2  1  0.070440  0.613124  0.867833  1
  Sr  Sr3  1  0.108170  0.112363  0.955141  1
  Sr  Sr4  1  0.191684  0.321151  0.652897  1
  Sr  Sr5  1  0.332732  0.868357  0.163510  1
  Sr  Sr6  1  0.481356  0.499637  0.102823  1
  Sr  Sr7  1  0.507973  0.303708  0.414002  1
  Sr  Sr8  1  0.578465  0.882190  0.515316  1
  Sr  Sr9  1  0.594457  0.199556  0.755899  1
  Sr  Sr10  1  0.628158  0.744508  0.859440  1
  Sr  Sr11  1  0.790655  0.291888  0.082134  1
  Sr  Sr12  1  0.895605  0.873869  0.286827  1
