# generated using pymatgen
data_Sr
_symmetry_space_group_name_H-M   P1
_cell_length_a   7.34400065
_cell_length_b   7.44878459
_cell_length_c   8.42051976
_cell_angle_alpha   90.14822806
_cell_angle_beta   90.04409094
_cell_angle_gamma   90.13551204
_symmetry_Int_Tables_number   1
_chemical_formula_structural   Sr
_chemical_formula_sum   Sr22
_cell_volume   460.63212429
_cell_formula_units_Z   22
loop_
 _symmetry_equiv_pos_site_id
 _symmetry_equiv_pos_as_xyz
  1  'x, y, z'
loop_
 _atom_site_type_symbol
 _atom_site_label
 _atom_site_symmetry_multiplicity
 _atom_site_fract_x
 _atom_site_fract_y
 _atom_site_fract_z
 _atom_site_occupancy
  Sr  Sr0  1  0.117423  0.525409  0.353877  1
  Sr  Sr1  1  0.117465  0.522205  0.691064  1
  Sr  Sr2  1  0.133262  0.508327  0.025935  1
  Sr  Sr3  1  0.263122  0.176137  0.422677  1
  Sr  Sr4  1  0.267278  0.865943  0.182207  1
  Sr  Sr5  1  0.272278  0.161802  0.920145  1
  Sr  Sr6  1  0.275068  0.869397  0.668113  1
  Sr  Sr7  1  0.464759  0.375175  0.667727  1
  Sr  Sr8  1  0.467872  0.667689  0.922127  1
  Sr  Sr9  1  0.471295  0.665074  0.428855  1
  Sr  Sr10  1  0.480916  0.358514  0.173018  1
  Sr  Sr11  1  0.615045  0.006973  0.061139  1
  Sr  Sr12  1  0.617935  0.015973  0.392471  1
  Sr  Sr13  1  0.625570  0.027793  0.725780  1
  Sr  Sr14  1  0.766555  0.360542  0.434536  1
  Sr  Sr15  1  0.767065  0.392108  0.918629  1
  Sr  Sr16  1  0.768100  0.676717  0.671188  1
  Sr  Sr17  1  0.770764  0.662959  0.188477  1
  Sr  Sr18  1  0.966554  0.168862  0.168029  1
  Sr  Sr19  1  0.967992  0.878139  0.434333  1
  Sr  Sr20  1  0.980944  0.846990  0.927582  1
  Sr  Sr21  1  0.986395  0.170921  0.676068  1
