# generated using pymatgen
data_Sr
_symmetry_space_group_name_H-M   P1
_cell_length_a   3.54977364
_cell_length_b   4.53884310
_cell_length_c   10.81554794
_cell_angle_alpha   82.30899823
_cell_angle_beta   89.90530214
_cell_angle_gamma   89.28441727
_symmetry_Int_Tables_number   1
_chemical_formula_structural   Sr
_chemical_formula_sum   Sr7
_cell_volume   172.67759602
_cell_formula_units_Z   7
loop_
 _symmetry_equiv_pos_site_id
 _symmetry_equiv_pos_as_xyz
  1  'x, y, z'
loop_
 _atom_site_type_symbol
 _atom_site_label
 _atom_site_symmetry_multiplicity
 _atom_site_fract_x
 _atom_site_fract_y
 _atom_site_fract_z
 _atom_site_occupancy
  Sr  Sr0  1  0.374260  0.825192  0.622164  1
  Sr  Sr1  1  0.408890  0.098035  0.387317  1
  Sr  Sr2  1  0.417741  0.259174  0.803694  1
  Sr  Sr3  1  0.431517  0.670430  0.217996  1
  Sr  Sr4  1  0.884127  0.414364  0.529299  1
  Sr  Sr5  1  0.913767  0.733260  0.915933  1
  Sr  Sr6  1  0.932220  0.193583  0.102015  1
