# generated using pymatgen
data_Sr
_symmetry_space_group_name_H-M   P-1
_cell_length_a   3.59593986
_cell_length_b   4.41030106
_cell_length_c   7.05160683
_cell_angle_alpha   82.96466829
_cell_angle_beta   79.77809331
_cell_angle_gamma   87.71957318
_symmetry_Int_Tables_number   2
_chemical_formula_structural   Sr
_chemical_formula_sum   Sr4
_cell_volume   109.21034771
_cell_formula_units_Z   4
loop_
 _symmetry_equiv_pos_site_id
 _symmetry_equiv_pos_as_xyz
  1  'x, y, z'
  2  '-x, -y, -z'
loop_
 _atom_site_type_symbol
 _atom_site_label
 _atom_site_symmetry_multiplicity
 _atom_site_fract_x
 _atom_site_fract_y
 _atom_site_fract_z
 _atom_site_occupancy
  Sr  Sr0  2  0.178490  0.724629  0.852434  1
  Sr  Sr1  2  0.291482  0.761818  0.338576  1
