# generated using pymatgen
data_Sr
_symmetry_space_group_name_H-M   P1
_cell_length_a   5.77321898
_cell_length_b   5.79501377
_cell_length_c   5.95971472
_cell_angle_alpha   83.94557592
_cell_angle_beta   88.41721574
_cell_angle_gamma   65.78395354
_symmetry_Int_Tables_number   1
_chemical_formula_structural   Sr
_chemical_formula_sum   Sr8
_cell_volume   180.80128641
_cell_formula_units_Z   8
loop_
 _symmetry_equiv_pos_site_id
 _symmetry_equiv_pos_as_xyz
  1  'x, y, z'
loop_
 _atom_site_type_symbol
 _atom_site_label
 _atom_site_symmetry_multiplicity
 _atom_site_fract_x
 _atom_site_fract_y
 _atom_site_fract_z
 _atom_site_occupancy
  Sr  Sr0  1  0.004971  0.062178  0.577733  1
  Sr  Sr1  1  0.046268  0.225951  0.099939  1
  Sr  Sr2  1  0.098897  0.559373  0.746589  1
  Sr  Sr3  1  0.158396  0.710071  0.262100  1
  Sr  Sr4  1  0.478748  0.182203  0.449689  1
  Sr  Sr5  1  0.498874  0.685906  0.876128  1
  Sr  Sr6  1  0.654057  0.087292  0.970331  1
  Sr  Sr7  1  0.686851  0.628346  0.428219  1
