# generated using pymatgen
data_Sr
_symmetry_space_group_name_H-M   P1
_cell_length_a   5.72178150
_cell_length_b   5.78438980
_cell_length_c   8.13663899
_cell_angle_alpha   107.24090777
_cell_angle_beta   96.68199949
_cell_angle_gamma   110.27541058
_symmetry_Int_Tables_number   1
_chemical_formula_structural   Sr
_chemical_formula_sum   Sr10
_cell_volume   233.93748791
_cell_formula_units_Z   10
loop_
 _symmetry_equiv_pos_site_id
 _symmetry_equiv_pos_as_xyz
  1  'x, y, z'
loop_
 _atom_site_type_symbol
 _atom_site_label
 _atom_site_symmetry_multiplicity
 _atom_site_fract_x
 _atom_site_fract_y
 _atom_site_fract_z
 _atom_site_occupancy
  Sr  Sr0  1  0.107580  0.295700  0.004989  1
  Sr  Sr1  1  0.229043  0.341419  0.409412  1
  Sr  Sr2  1  0.258174  0.949102  0.535932  1
  Sr  Sr3  1  0.519706  0.493475  0.821729  1
  Sr  Sr4  1  0.522067  0.060743  0.941854  1
  Sr  Sr5  1  0.541842  0.865841  0.252461  1
  Sr  Sr6  1  0.730716  0.451444  0.320113  1
  Sr  Sr7  1  0.778985  0.970973  0.630615  1
  Sr  Sr8  1  0.973166  0.565919  0.709553  1
  Sr  Sr9  1  0.979835  0.794939  0.108501  1
