# generated using pymatgen
data_Sr
_symmetry_space_group_name_H-M   Cm
_cell_length_a   11.81663729
_cell_length_b   3.54004196
_cell_length_c   4.74540057
_cell_angle_alpha   90.00000000
_cell_angle_beta   111.81054646
_cell_angle_gamma   90.00000000
_symmetry_Int_Tables_number   8
_chemical_formula_structural   Sr
_chemical_formula_sum   Sr6
_cell_volume   184.29709491
_cell_formula_units_Z   6
loop_
 _symmetry_equiv_pos_site_id
 _symmetry_equiv_pos_as_xyz
  1  'x, y, z'
  2  'x, -y, z'
  3  'x+1/2, y+1/2, z'
  4  'x+1/2, -y+1/2, z'
loop_
 _atom_site_type_symbol
 _atom_site_label
 _atom_site_symmetry_multiplicity
 _atom_site_fract_x
 _atom_site_fract_y
 _atom_site_fract_z
 _atom_site_occupancy
  Sr  Sr0  2  0.036638  0.500000  0.556909  1
  Sr  Sr1  2  0.226177  0.500000  0.226365  1
  Sr  Sr2  2  0.336510  0.000000  0.818432  1
