# generated using pymatgen
data_Sr
_symmetry_space_group_name_H-M   P1
_cell_length_a   8.09594837
_cell_length_b   8.25214373
_cell_length_c   8.40327770
_cell_angle_alpha   107.02533869
_cell_angle_beta   100.84123655
_cell_angle_gamma   119.29841882
_symmetry_Int_Tables_number   1
_chemical_formula_structural   Sr
_chemical_formula_sum   Sr21
_cell_volume   429.59117700
_cell_formula_units_Z   21
loop_
 _symmetry_equiv_pos_site_id
 _symmetry_equiv_pos_as_xyz
  1  'x, y, z'
loop_
 _atom_site_type_symbol
 _atom_site_label
 _atom_site_symmetry_multiplicity
 _atom_site_fract_x
 _atom_site_fract_y
 _atom_site_fract_z
 _atom_site_occupancy
  Sr  Sr0  1  0.017155  0.972488  0.009989  1
  Sr  Sr1  1  0.065125  0.437248  0.257007  1
  Sr  Sr2  1  0.069730  0.001598  0.664286  1
  Sr  Sr3  1  0.176448  0.369177  0.962846  1
  Sr  Sr4  1  0.196782  0.897271  0.280160  1
  Sr  Sr5  1  0.197323  0.446542  0.627419  1
  Sr  Sr6  1  0.311593  0.842734  0.620443  1
  Sr  Sr7  1  0.313553  0.783829  0.994880  1
  Sr  Sr8  1  0.371969  0.339117  0.340037  1
  Sr  Sr9  1  0.441666  0.197676  0.002040  1
  Sr  Sr10  1  0.466714  0.289867  0.665700  1
  Sr  Sr11  1  0.504371  0.777274  0.342106  1
  Sr  Sr12  1  0.599490  0.661704  0.996656  1
  Sr  Sr13  1  0.645818  0.730024  0.656575  1
  Sr  Sr14  1  0.675409  0.222538  0.365149  1
  Sr  Sr15  1  0.699349  0.053509  0.974289  1
  Sr  Sr16  1  0.793045  0.608723  0.343149  1
  Sr  Sr17  1  0.794626  0.175262  0.700928  1
  Sr  Sr18  1  0.842759  0.499273  0.001843  1
  Sr  Sr19  1  0.912184  0.030729  0.345924  1
  Sr  Sr20  1  0.934720  0.603837  0.726909  1
