# generated using pymatgen
data_Sr
_symmetry_space_group_name_H-M   P2_1
_cell_length_a   6.10116306
_cell_length_b   6.29893308
_cell_length_c   6.59161416
_cell_angle_alpha   90.00000000
_cell_angle_beta   96.65636165
_cell_angle_gamma   90.00000000
_symmetry_Int_Tables_number   4
_chemical_formula_structural   Sr
_chemical_formula_sum   Sr10
_cell_volume   251.61354139
_cell_formula_units_Z   10
loop_
 _symmetry_equiv_pos_site_id
 _symmetry_equiv_pos_as_xyz
  1  'x, y, z'
  2  '-x, y+1/2, -z'
loop_
 _atom_site_type_symbol
 _atom_site_label
 _atom_site_symmetry_multiplicity
 _atom_site_fract_x
 _atom_site_fract_y
 _atom_site_fract_z
 _atom_site_occupancy
  Sr  Sr0  2  0.088167  0.706921  0.858378  1
  Sr  Sr1  2  0.154363  0.264395  0.664205  1
  Sr  Sr2  2  0.263869  0.514628  0.285799  1
  Sr  Sr3  2  0.351646  0.918665  0.461631  1
  Sr  Sr4  2  0.415484  0.091439  0.075815  1
