# generated using pymatgen
data_Sr
_symmetry_space_group_name_H-M   P-1
_cell_length_a   5.54457410
_cell_length_b   5.64430845
_cell_length_c   5.89921655
_cell_angle_alpha   91.97601814
_cell_angle_beta   92.61438229
_cell_angle_gamma   111.75400555
_symmetry_Int_Tables_number   2
_chemical_formula_structural   Sr
_chemical_formula_sum   Sr8
_cell_volume   171.02848511
_cell_formula_units_Z   8
loop_
 _symmetry_equiv_pos_site_id
 _symmetry_equiv_pos_as_xyz
  1  'x, y, z'
  2  '-x, -y, -z'
loop_
 _atom_site_type_symbol
 _atom_site_label
 _atom_site_symmetry_multiplicity
 _atom_site_fract_x
 _atom_site_fract_y
 _atom_site_fract_z
 _atom_site_occupancy
  Sr  Sr0  2  0.160651  0.499473  0.170196  1
  Sr  Sr1  2  0.236518  0.904966  0.527924  1
  Sr  Sr2  2  0.286584  0.083043  0.048653  1
  Sr  Sr3  2  0.324070  0.414381  0.649441  1
