# generated using pymatgen
data_Sr
_symmetry_space_group_name_H-M   P2/c
_cell_length_a   5.51430804
_cell_length_b   4.53182950
_cell_length_c   5.51741898
_cell_angle_alpha   90.00000000
_cell_angle_beta   94.95749486
_cell_angle_gamma   90.00000000
_symmetry_Int_Tables_number   13
_chemical_formula_structural   Sr
_chemical_formula_sum   Sr4
_cell_volume   137.36397272
_cell_formula_units_Z   4
loop_
 _symmetry_equiv_pos_site_id
 _symmetry_equiv_pos_as_xyz
  1  'x, y, z'
  2  '-x, -y, -z'
  3  '-x, y, -z+1/2'
  4  'x, -y, z+1/2'
loop_
 _atom_site_type_symbol
 _atom_site_label
 _atom_site_symmetry_multiplicity
 _atom_site_fract_x
 _atom_site_fract_y
 _atom_site_fract_z
 _atom_site_occupancy
  Sr  Sr0  4  0.271613  0.237591  0.478426  1
