# generated using pymatgen
data_Sr
_symmetry_space_group_name_H-M   P1
_cell_length_a   5.89073235
_cell_length_b   5.97100155
_cell_length_c   8.47060967
_cell_angle_alpha   94.46478261
_cell_angle_beta   106.29947204
_cell_angle_gamma   90.64025642
_symmetry_Int_Tables_number   1
_chemical_formula_structural   Sr
_chemical_formula_sum   Sr12
_cell_volume   284.92907192
_cell_formula_units_Z   12
loop_
 _symmetry_equiv_pos_site_id
 _symmetry_equiv_pos_as_xyz
  1  'x, y, z'
loop_
 _atom_site_type_symbol
 _atom_site_label
 _atom_site_symmetry_multiplicity
 _atom_site_fract_x
 _atom_site_fract_y
 _atom_site_fract_z
 _atom_site_occupancy
  Sr  Sr0  1  0.003574  0.897995  0.115112  1
  Sr  Sr1  1  0.075981  0.120334  0.788649  1
  Sr  Sr2  1  0.240825  0.787325  0.469899  1
  Sr  Sr3  1  0.244797  0.629696  0.822877  1
  Sr  Sr4  1  0.261725  0.282785  0.361555  1
  Sr  Sr5  1  0.475189  0.544997  0.163574  1
  Sr  Sr6  1  0.508120  0.248306  0.702816  1
  Sr  Sr7  1  0.511491  0.058794  0.063126  1
  Sr  Sr8  1  0.684699  0.759194  0.738122  1
  Sr  Sr9  1  0.744883  0.949074  0.404266  1
  Sr  Sr10  1  0.851153  0.421340  0.478641  1
  Sr  Sr11  1  0.875048  0.434384  0.036604  1
