# generated using pymatgen
data_Sr
_symmetry_space_group_name_H-M   Cm
_cell_length_a   11.74349233
_cell_length_b   3.53201942
_cell_length_c   8.44651336
_cell_angle_alpha   90.00000000
_cell_angle_beta   114.72668319
_cell_angle_gamma   90.00000000
_symmetry_Int_Tables_number   8
_chemical_formula_structural   Sr
_chemical_formula_sum   Sr12
_cell_volume   318.22447675
_cell_formula_units_Z   12
loop_
 _symmetry_equiv_pos_site_id
 _symmetry_equiv_pos_as_xyz
  1  'x, y, z'
  2  'x, -y, z'
  3  'x+1/2, y+1/2, z'
  4  'x+1/2, -y+1/2, z'
loop_
 _atom_site_type_symbol
 _atom_site_label
 _atom_site_symmetry_multiplicity
 _atom_site_fract_x
 _atom_site_fract_y
 _atom_site_fract_z
 _atom_site_occupancy
  Sr  Sr0  2  0.038286  0.500000  0.278494  1
  Sr  Sr1  2  0.067162  0.000000  0.959399  1
  Sr  Sr2  2  0.087493  0.000000  0.600071  1
  Sr  Sr3  2  0.301271  0.500000  0.361650  1
  Sr  Sr4  2  0.303014  0.500000  0.008058  1
  Sr  Sr5  2  0.347255  0.000000  0.680789  1
