# generated using pymatgen
data_Sr
_symmetry_space_group_name_H-M   P-1
_cell_length_a   3.76380393
_cell_length_b   5.83299259
_cell_length_c   6.53505397
_cell_angle_alpha   94.61750204
_cell_angle_beta   104.09247730
_cell_angle_gamma   96.15345625
_symmetry_Int_Tables_number   2
_chemical_formula_structural   Sr
_chemical_formula_sum   Sr4
_cell_volume   137.50445876
_cell_formula_units_Z   4
loop_
 _symmetry_equiv_pos_site_id
 _symmetry_equiv_pos_as_xyz
  1  'x, y, z'
  2  '-x, -y, -z'
loop_
 _atom_site_type_symbol
 _atom_site_label
 _atom_site_symmetry_multiplicity
 _atom_site_fract_x
 _atom_site_fract_y
 _atom_site_fract_z
 _atom_site_occupancy
  Sr  Sr0  2  0.085371  0.228904  0.364762  1
  Sr  Sr1  2  0.370636  0.674537  0.203581  1
