# generated using pymatgen
data_Sr
_symmetry_space_group_name_H-M   P1
_cell_length_a   3.36150880
_cell_length_b   3.76582296
_cell_length_c   11.74274152
_cell_angle_alpha   90.22383781
_cell_angle_beta   93.25486741
_cell_angle_gamma   116.36224492
_symmetry_Int_Tables_number   1
_chemical_formula_structural   Sr
_chemical_formula_sum   Sr4
_cell_volume   132.90536872
_cell_formula_units_Z   4
loop_
 _symmetry_equiv_pos_site_id
 _symmetry_equiv_pos_as_xyz
  1  'x, y, z'
loop_
 _atom_site_type_symbol
 _atom_site_label
 _atom_site_symmetry_multiplicity
 _atom_site_fract_x
 _atom_site_fract_y
 _atom_site_fract_z
 _atom_site_occupancy
  Sr  Sr0  1  0.484231  0.553613  0.163857  1
  Sr  Sr1  1  0.618783  0.113168  0.444963  1
  Sr  Sr2  1  0.676177  0.038421  0.913352  1
  Sr  Sr3  1  0.870610  0.525956  0.667837  1
