# generated using pymatgen
data_Sr
_symmetry_space_group_name_H-M   P1
_cell_length_a   5.92881482
_cell_length_b   6.04749189
_cell_length_c   6.58947218
_cell_angle_alpha   80.25692204
_cell_angle_beta   87.95303301
_cell_angle_gamma   64.63163646
_symmetry_Int_Tables_number   1
_chemical_formula_structural   Sr
_chemical_formula_sum   Sr8
_cell_volume   210.22099333
_cell_formula_units_Z   8
loop_
 _symmetry_equiv_pos_site_id
 _symmetry_equiv_pos_as_xyz
  1  'x, y, z'
loop_
 _atom_site_type_symbol
 _atom_site_label
 _atom_site_symmetry_multiplicity
 _atom_site_fract_x
 _atom_site_fract_y
 _atom_site_fract_z
 _atom_site_occupancy
  Sr  Sr0  1  0.057698  0.113941  0.519639  1
  Sr  Sr1  1  0.111900  0.414098  0.065038  1
  Sr  Sr2  1  0.408995  0.987998  0.874016  1
  Sr  Sr3  1  0.485520  0.306288  0.406988  1
  Sr  Sr4  1  0.550022  0.466777  0.837194  1
  Sr  Sr5  1  0.587449  0.739744  0.297546  1
  Sr  Sr6  1  0.934158  0.677256  0.639962  1
  Sr  Sr7  1  0.946183  0.948734  0.076069  1
