# generated using pymatgen
data_Sr
_symmetry_space_group_name_H-M   P1
_cell_length_a   5.70739260
_cell_length_b   5.71637448
_cell_length_c   8.34233786
_cell_angle_alpha   103.30944900
_cell_angle_beta   105.76159813
_cell_angle_gamma   105.29178641
_symmetry_Int_Tables_number   1
_chemical_formula_structural   Sr
_chemical_formula_sum   Sr11
_cell_volume   238.93646312
_cell_formula_units_Z   11
loop_
 _symmetry_equiv_pos_site_id
 _symmetry_equiv_pos_as_xyz
  1  'x, y, z'
loop_
 _atom_site_type_symbol
 _atom_site_label
 _atom_site_symmetry_multiplicity
 _atom_site_fract_x
 _atom_site_fract_y
 _atom_site_fract_z
 _atom_site_occupancy
  Sr  Sr0  1  0.130333  0.035188  0.809161  1
  Sr  Sr1  1  0.149215  0.268580  0.546912  1
  Sr  Sr2  1  0.225588  0.324900  0.195877  1
  Sr  Sr3  1  0.253409  0.623299  0.961075  1
  Sr  Sr4  1  0.273909  0.795385  0.484875  1
  Sr  Sr5  1  0.621907  0.030719  0.307062  1
  Sr  Sr6  1  0.638239  0.816120  0.820042  1
  Sr  Sr7  1  0.664280  0.292539  0.047715  1
  Sr  Sr8  1  0.730026  0.602419  0.456359  1
  Sr  Sr9  1  0.734607  0.329526  0.703375  1
  Sr  Sr10  1  0.958504  0.814334  0.144210  1
