# generated using pymatgen
data_Sr
_symmetry_space_group_name_H-M   P1
_cell_length_a   5.55965308
_cell_length_b   6.01446555
_cell_length_c   8.12851300
_cell_angle_alpha   95.66474158
_cell_angle_beta   103.82153070
_cell_angle_gamma   91.37720295
_symmetry_Int_Tables_number   1
_chemical_formula_structural   Sr
_chemical_formula_sum   Sr13
_cell_volume   262.32581604
_cell_formula_units_Z   13
loop_
 _symmetry_equiv_pos_site_id
 _symmetry_equiv_pos_as_xyz
  1  'x, y, z'
loop_
 _atom_site_type_symbol
 _atom_site_label
 _atom_site_symmetry_multiplicity
 _atom_site_fract_x
 _atom_site_fract_y
 _atom_site_fract_z
 _atom_site_occupancy
  Sr  Sr0  1  0.105067  0.506346  0.030932  1
  Sr  Sr1  1  0.174189  0.316492  0.685505  1
  Sr  Sr2  1  0.275688  0.845996  0.676785  1
  Sr  Sr3  1  0.286875  0.817399  0.331056  1
  Sr  Sr4  1  0.399849  0.375259  0.428346  1
  Sr  Sr5  1  0.438893  0.180025  0.101761  1
  Sr  Sr6  1  0.542296  0.712656  0.993507  1
  Sr  Sr7  1  0.656260  0.253827  0.843884  1
  Sr  Sr8  1  0.743460  0.029536  0.545828  1
  Sr  Sr9  1  0.793663  0.623818  0.678521  1
  Sr  Sr10  1  0.818951  0.614122  0.309332  1
  Sr  Sr11  1  0.938455  0.158537  0.269648  1
  Sr  Sr12  1  0.988438  0.939566  0.957286  1
