# generated using pymatgen
data_Sr
_symmetry_space_group_name_H-M   P1
_cell_length_a   6.00909175
_cell_length_b   6.17537483
_cell_length_c   6.45874160
_cell_angle_alpha   90.20761480
_cell_angle_beta   98.10671642
_cell_angle_gamma   116.06894952
_symmetry_Int_Tables_number   1
_chemical_formula_structural   Sr
_chemical_formula_sum   Sr9
_cell_volume   212.55859255
_cell_formula_units_Z   9
loop_
 _symmetry_equiv_pos_site_id
 _symmetry_equiv_pos_as_xyz
  1  'x, y, z'
loop_
 _atom_site_type_symbol
 _atom_site_label
 _atom_site_symmetry_multiplicity
 _atom_site_fract_x
 _atom_site_fract_y
 _atom_site_fract_z
 _atom_site_occupancy
  Sr  Sr0  1  0.084227  0.536201  0.045425  1
  Sr  Sr1  1  0.176198  0.119611  0.265360  1
  Sr  Sr2  1  0.381517  0.758561  0.457750  1
  Sr  Sr3  1  0.452941  0.029963  0.898795  1
  Sr  Sr4  1  0.454613  0.404004  0.691680  1
  Sr  Sr5  1  0.662597  0.707492  0.091933  1
  Sr  Sr6  1  0.727754  0.266887  0.328092  1
  Sr  Sr7  1  0.941632  0.718661  0.625731  1
  Sr  Sr8  1  0.948347  0.165582  0.728649  1
