# generated using pymatgen
data_Sr
_symmetry_space_group_name_H-M   P1
_cell_length_a   5.87040611
_cell_length_b   5.95170236
_cell_length_c   6.18559627
_cell_angle_alpha   118.45074941
_cell_angle_beta   90.95101024
_cell_angle_gamma   93.42295716
_symmetry_Int_Tables_number   1
_chemical_formula_structural   Sr
_chemical_formula_sum   Sr8
_cell_volume   189.42781844
_cell_formula_units_Z   8
loop_
 _symmetry_equiv_pos_site_id
 _symmetry_equiv_pos_as_xyz
  1  'x, y, z'
loop_
 _atom_site_type_symbol
 _atom_site_label
 _atom_site_symmetry_multiplicity
 _atom_site_fract_x
 _atom_site_fract_y
 _atom_site_fract_z
 _atom_site_occupancy
  Sr  Sr0  1  0.103734  0.648748  0.774123  1
  Sr  Sr1  1  0.179447  0.123065  0.395893  1
  Sr  Sr2  1  0.295397  0.605968  0.240343  1
  Sr  Sr3  1  0.498013  0.022839  0.796397  1
  Sr  Sr4  1  0.646518  0.545141  0.843637  1
  Sr  Sr5  1  0.655106  0.194469  0.313689  1
  Sr  Sr6  1  0.770724  0.743387  0.383534  1
  Sr  Sr7  1  0.981499  0.165445  0.923959  1
