# generated using pymatgen
data_Sr
_symmetry_space_group_name_H-M   P1
_cell_length_a   5.98583297
_cell_length_b   6.05995248
_cell_length_c   9.47615191
_cell_angle_alpha   80.39695381
_cell_angle_beta   82.37631783
_cell_angle_gamma   64.50327385
_symmetry_Int_Tables_number   1
_chemical_formula_structural   Sr
_chemical_formula_sum   Sr13
_cell_volume   305.19641377
_cell_formula_units_Z   13
loop_
 _symmetry_equiv_pos_site_id
 _symmetry_equiv_pos_as_xyz
  1  'x, y, z'
loop_
 _atom_site_type_symbol
 _atom_site_label
 _atom_site_symmetry_multiplicity
 _atom_site_fract_x
 _atom_site_fract_y
 _atom_site_fract_z
 _atom_site_occupancy
  Sr  Sr0  1  0.112112  0.652243  0.115594  1
  Sr  Sr1  1  0.189262  0.136855  0.765555  1
  Sr  Sr2  1  0.281167  0.141088  0.083835  1
  Sr  Sr3  1  0.293185  0.816076  0.533536  1
  Sr  Sr4  1  0.327392  0.344924  0.428606  1
  Sr  Sr5  1  0.333969  0.597364  0.826914  1
  Sr  Sr6  1  0.540932  0.633608  0.225323  1
  Sr  Sr7  1  0.695234  0.181389  0.653369  1
  Sr  Sr8  1  0.758136  0.939470  0.317168  1
  Sr  Sr9  1  0.760603  0.753774  0.882944  1
  Sr  Sr10  1  0.769043  0.233508  0.999836  1
  Sr  Sr11  1  0.833295  0.645090  0.575977  1
  Sr  Sr12  1  0.963588  0.237446  0.349950  1
