# generated using pymatgen
data_Sr
_symmetry_space_group_name_H-M   P-1
_cell_length_a   5.44218546
_cell_length_b   6.24998125
_cell_length_c   12.18675675
_cell_angle_alpha   97.68631806
_cell_angle_beta   91.50636371
_cell_angle_gamma   92.98579062
_symmetry_Int_Tables_number   2
_chemical_formula_structural   Sr
_chemical_formula_sum   Sr20
_cell_volume   410.00128410
_cell_formula_units_Z   20
loop_
 _symmetry_equiv_pos_site_id
 _symmetry_equiv_pos_as_xyz
  1  'x, y, z'
  2  '-x, -y, -z'
loop_
 _atom_site_type_symbol
 _atom_site_label
 _atom_site_symmetry_multiplicity
 _atom_site_fract_x
 _atom_site_fract_y
 _atom_site_fract_z
 _atom_site_occupancy
  Sr  Sr0  2  0.076847  0.424470  0.213382  1
  Sr  Sr1  2  0.087136  0.910443  0.217342  1
  Sr  Sr2  2  0.193646  0.687339  0.008842  1
  Sr  Sr3  2  0.201693  0.528309  0.589274  1
  Sr  Sr4  2  0.202546  0.018962  0.584288  1
  Sr  Sr5  2  0.300841  0.175280  0.030463  1
  Sr  Sr6  2  0.325414  0.223951  0.378173  1
  Sr  Sr7  2  0.335473  0.722885  0.389846  1
  Sr  Sr8  2  0.361328  0.855066  0.794399  1
  Sr  Sr9  2  0.400638  0.358626  0.819373  1
