# generated using pymatgen
data_Sr
_symmetry_space_group_name_H-M   P1
_cell_length_a   5.94297348
_cell_length_b   6.14030416
_cell_length_c   6.40939265
_cell_angle_alpha   81.87557102
_cell_angle_beta   83.45553754
_cell_angle_gamma   61.59164791
_symmetry_Int_Tables_number   1
_chemical_formula_structural   Sr
_chemical_formula_sum   Sr9
_cell_volume   203.36590697
_cell_formula_units_Z   9
loop_
 _symmetry_equiv_pos_site_id
 _symmetry_equiv_pos_as_xyz
  1  'x, y, z'
loop_
 _atom_site_type_symbol
 _atom_site_label
 _atom_site_symmetry_multiplicity
 _atom_site_fract_x
 _atom_site_fract_y
 _atom_site_fract_z
 _atom_site_occupancy
  Sr  Sr0  1  0.085835  0.600923  0.133394  1
  Sr  Sr1  1  0.147112  0.831095  0.660188  1
  Sr  Sr2  1  0.156713  0.134912  0.965242  1
  Sr  Sr3  1  0.314999  0.305367  0.561473  1
  Sr  Sr4  1  0.427475  0.776383  0.283078  1
  Sr  Sr5  1  0.623755  0.312210  0.903411  1
  Sr  Sr6  1  0.713584  0.736348  0.770649  1
  Sr  Sr7  1  0.718907  0.007195  0.300520  1
  Sr  Sr8  1  0.849225  0.347689  0.422529  1
