# generated using pymatgen
data_Sr
_symmetry_space_group_name_H-M   P1
_cell_length_a   5.45984924
_cell_length_b   5.56349426
_cell_length_c   8.17363177
_cell_angle_alpha   93.69310572
_cell_angle_beta   106.60883363
_cell_angle_gamma   111.46856712
_symmetry_Int_Tables_number   1
_chemical_formula_structural   Sr
_chemical_formula_sum   Sr10
_cell_volume   217.40150812
_cell_formula_units_Z   10
loop_
 _symmetry_equiv_pos_site_id
 _symmetry_equiv_pos_as_xyz
  1  'x, y, z'
loop_
 _atom_site_type_symbol
 _atom_site_label
 _atom_site_symmetry_multiplicity
 _atom_site_fract_x
 _atom_site_fract_y
 _atom_site_fract_z
 _atom_site_occupancy
  Sr  Sr0  1  0.062317  0.241384  0.066250  1
  Sr  Sr1  1  0.144219  0.801452  0.174211  1
  Sr  Sr2  1  0.263797  0.647276  0.522436  1
  Sr  Sr3  1  0.416501  0.206003  0.527146  1
  Sr  Sr4  1  0.432407  0.038000  0.909094  1
  Sr  Sr5  1  0.601864  0.580041  0.253894  1
  Sr  Sr6  1  0.613707  0.597418  0.892334  1
  Sr  Sr7  1  0.780869  0.163065  0.309860  1
  Sr  Sr8  1  0.888058  0.917607  0.643951  1
  Sr  Sr9  1  0.968611  0.429647  0.764559  1
