# generated using pymatgen
data_Sr
_symmetry_space_group_name_H-M   P1
_cell_length_a   3.72927876
_cell_length_b   6.24519872
_cell_length_c   7.29164478
_cell_angle_alpha   79.36096872
_cell_angle_beta   76.68245537
_cell_angle_gamma   75.41339873
_symmetry_Int_Tables_number   1
_chemical_formula_structural   Sr
_chemical_formula_sum   Sr5
_cell_volume   158.47778306
_cell_formula_units_Z   5
loop_
 _symmetry_equiv_pos_site_id
 _symmetry_equiv_pos_as_xyz
  1  'x, y, z'
loop_
 _atom_site_type_symbol
 _atom_site_label
 _atom_site_symmetry_multiplicity
 _atom_site_fract_x
 _atom_site_fract_y
 _atom_site_fract_z
 _atom_site_occupancy
  Sr  Sr0  1  0.168908  0.732175  0.088153  1
  Sr  Sr1  1  0.362941  0.123721  0.287544  1
  Sr  Sr2  1  0.475717  0.519861  0.477894  1
  Sr  Sr3  1  0.640929  0.885489  0.694780  1
  Sr  Sr4  1  0.872041  0.281540  0.880405  1
