# generated using pymatgen
data_Sr
_symmetry_space_group_name_H-M   P1
_cell_length_a   5.53910201
_cell_length_b   5.85734935
_cell_length_c   6.60098249
_cell_angle_alpha   106.92527981
_cell_angle_beta   90.64550829
_cell_angle_gamma   116.48094677
_symmetry_Int_Tables_number   1
_chemical_formula_structural   Sr
_chemical_formula_sum   Sr8
_cell_volume   180.88636031
_cell_formula_units_Z   8
loop_
 _symmetry_equiv_pos_site_id
 _symmetry_equiv_pos_as_xyz
  1  'x, y, z'
loop_
 _atom_site_type_symbol
 _atom_site_label
 _atom_site_symmetry_multiplicity
 _atom_site_fract_x
 _atom_site_fract_y
 _atom_site_fract_z
 _atom_site_occupancy
  Sr  Sr0  1  0.030895  0.994074  0.988526  1
  Sr  Sr1  1  0.034356  0.970040  0.471776  1
  Sr  Sr2  1  0.063698  0.430289  0.347939  1
  Sr  Sr3  1  0.084561  0.451252  0.850905  1
  Sr  Sr4  1  0.476735  0.869228  0.221923  1
  Sr  Sr5  1  0.504254  0.913497  0.716069  1
  Sr  Sr6  1  0.605560  0.454059  0.597482  1
  Sr  Sr7  1  0.619970  0.423230  0.097249  1
