# generated using pymatgen
data_Sr
_symmetry_space_group_name_H-M   P1
_cell_length_a   5.90337223
_cell_length_b   5.94310368
_cell_length_c   6.02057764
_cell_angle_alpha   60.49698209
_cell_angle_beta   88.07839025
_cell_angle_gamma   89.10447669
_symmetry_Int_Tables_number   1
_chemical_formula_structural   Sr
_chemical_formula_sum   Sr8
_cell_volume   183.73459913
_cell_formula_units_Z   8
loop_
 _symmetry_equiv_pos_site_id
 _symmetry_equiv_pos_as_xyz
  1  'x, y, z'
loop_
 _atom_site_type_symbol
 _atom_site_label
 _atom_site_symmetry_multiplicity
 _atom_site_fract_x
 _atom_site_fract_y
 _atom_site_fract_z
 _atom_site_occupancy
  Sr  Sr0  1  0.127599  0.769029  0.032105  1
  Sr  Sr1  1  0.257454  0.262575  0.940024  1
  Sr  Sr2  1  0.309904  0.831702  0.538644  1
  Sr  Sr3  1  0.441374  0.390687  0.373981  1
  Sr  Sr4  1  0.640755  0.963856  0.860237  1
  Sr  Sr5  1  0.779304  0.799594  0.392613  1
  Sr  Sr6  1  0.781751  0.408129  0.915819  1
  Sr  Sr7  1  0.950351  0.237826  0.449660  1
