# generated using pymatgen
data_Sr
_symmetry_space_group_name_H-M   Cm
_cell_length_a   5.97105219
_cell_length_b   3.63968186
_cell_length_c   8.57311006
_cell_angle_alpha   90.00000000
_cell_angle_beta   96.28097515
_cell_angle_gamma   90.00000000
_symmetry_Int_Tables_number   8
_chemical_formula_structural   Sr
_chemical_formula_sum   Sr6
_cell_volume   185.19869031
_cell_formula_units_Z   6
loop_
 _symmetry_equiv_pos_site_id
 _symmetry_equiv_pos_as_xyz
  1  'x, y, z'
  2  'x, -y, z'
  3  'x+1/2, y+1/2, z'
  4  'x+1/2, -y+1/2, z'
loop_
 _atom_site_type_symbol
 _atom_site_label
 _atom_site_symmetry_multiplicity
 _atom_site_fract_x
 _atom_site_fract_y
 _atom_site_fract_z
 _atom_site_occupancy
  Sr  Sr0  2  0.064326  0.500000  0.662277  1
  Sr  Sr1  2  0.230365  0.000000  0.320153  1
  Sr  Sr2  2  0.348882  0.500000  0.021366  1
