# generated using pymatgen
data_Sr
_symmetry_space_group_name_H-M   P1
_cell_length_a   5.66472360
_cell_length_b   5.72992059
_cell_length_c   11.10189087
_cell_angle_alpha   93.70705768
_cell_angle_beta   96.28714398
_cell_angle_gamma   91.33658786
_symmetry_Int_Tables_number   1
_chemical_formula_structural   Sr
_chemical_formula_sum   Sr18
_cell_volume   357.26507548
_cell_formula_units_Z   18
loop_
 _symmetry_equiv_pos_site_id
 _symmetry_equiv_pos_as_xyz
  1  'x, y, z'
loop_
 _atom_site_type_symbol
 _atom_site_label
 _atom_site_symmetry_multiplicity
 _atom_site_fract_x
 _atom_site_fract_y
 _atom_site_fract_z
 _atom_site_occupancy
  Sr  Sr0  1  0.018999  0.668254  0.757131  1
  Sr  Sr1  1  0.099244  0.343284  0.922116  1
  Sr  Sr2  1  0.195404  0.414076  0.508497  1
  Sr  Sr3  1  0.203731  0.260973  0.168856  1
  Sr  Sr4  1  0.270554  0.055662  0.674284  1
  Sr  Sr5  1  0.345930  0.924231  0.938922  1
  Sr  Sr6  1  0.372153  0.851465  0.461424  1
  Sr  Sr7  1  0.433856  0.770117  0.216822  1
  Sr  Sr8  1  0.505740  0.535058  0.727717  1
  Sr  Sr9  1  0.563003  0.297002  0.380275  1
  Sr  Sr10  1  0.588128  0.493405  0.984314  1
  Sr  Sr11  1  0.706962  0.104123  0.118506  1
  Sr  Sr12  1  0.748885  0.026325  0.835781  1
  Sr  Sr13  1  0.799518  0.216979  0.615230  1
  Sr  Sr14  1  0.817852  0.737251  0.521559  1
  Sr  Sr15  1  0.889967  0.582086  0.275213  1
  Sr  Sr16  1  0.970595  0.054100  0.351920  1
  Sr  Sr17  1  0.996664  0.750572  0.057015  1
