# generated using pymatgen
data_Sr
_symmetry_space_group_name_H-M   P1
_cell_length_a   5.36428122
_cell_length_b   5.42007073
_cell_length_c   14.58144285
_cell_angle_alpha   96.25886151
_cell_angle_beta   93.23335824
_cell_angle_gamma   119.04273780
_symmetry_Int_Tables_number   1
_chemical_formula_structural   Sr
_chemical_formula_sum   Sr19
_cell_volume   365.50729906
_cell_formula_units_Z   19
loop_
 _symmetry_equiv_pos_site_id
 _symmetry_equiv_pos_as_xyz
  1  'x, y, z'
loop_
 _atom_site_type_symbol
 _atom_site_label
 _atom_site_symmetry_multiplicity
 _atom_site_fract_x
 _atom_site_fract_y
 _atom_site_fract_z
 _atom_site_occupancy
  Sr  Sr0  1  0.064618  0.551454  0.939829  1
  Sr  Sr1  1  0.067906  0.158313  0.415012  1
  Sr  Sr2  1  0.073008  0.073942  0.022165  1
  Sr  Sr3  1  0.143716  0.786644  0.170486  1
  Sr  Sr4  1  0.148027  0.698681  0.747279  1
  Sr  Sr5  1  0.178177  0.868674  0.555748  1
  Sr  Sr6  1  0.321345  0.372785  0.233439  1
  Sr  Sr7  1  0.449269  0.759385  0.413336  1
  Sr  Sr8  1  0.475950  0.141925  0.899511  1
  Sr  Sr9  1  0.529143  0.691083  0.068105  1
  Sr  Sr10  1  0.557622  0.287418  0.711302  1
  Sr  Sr11  1  0.581205  0.710939  0.621329  1
  Sr  Sr12  1  0.608484  0.696514  0.869041  1
  Sr  Sr13  1  0.648352  0.372224  0.468916  1
  Sr  Sr14  1  0.695181  0.287269  0.087770  1
  Sr  Sr15  1  0.723733  0.046048  0.250882  1
  Sr  Sr16  1  0.909898  0.621601  0.321456  1
  Sr  Sr17  1  0.986333  0.117381  0.782228  1
  Sr  Sr18  1  0.988405  0.268038  0.595115  1
