# generated using pymatgen
data_Sr
_symmetry_space_group_name_H-M   P1
_cell_length_a   3.82164192
_cell_length_b   5.85942247
_cell_length_c   6.06536777
_cell_angle_alpha   86.06827731
_cell_angle_beta   73.72079359
_cell_angle_gamma   78.02367101
_symmetry_Int_Tables_number   1
_chemical_formula_structural   Sr
_chemical_formula_sum   Sr5
_cell_volume   127.52842600
_cell_formula_units_Z   5
loop_
 _symmetry_equiv_pos_site_id
 _symmetry_equiv_pos_as_xyz
  1  'x, y, z'
loop_
 _atom_site_type_symbol
 _atom_site_label
 _atom_site_symmetry_multiplicity
 _atom_site_fract_x
 _atom_site_fract_y
 _atom_site_fract_z
 _atom_site_occupancy
  Sr  Sr0  1  0.096559  0.310784  0.224036  1
  Sr  Sr1  1  0.385404  0.304763  0.590500  1
  Sr  Sr2  1  0.571373  0.611994  0.909969  1
  Sr  Sr3  1  0.914013  0.796798  0.403927  1
  Sr  Sr4  1  0.926123  0.992975  0.904983  1
