# generated using pymatgen
data_Sr
_symmetry_space_group_name_H-M   P-1
_cell_length_a   7.01043606
_cell_length_b   7.01731546
_cell_length_c   7.69650349
_cell_angle_alpha   99.37818641
_cell_angle_beta   112.46229907
_cell_angle_gamma   95.25369887
_symmetry_Int_Tables_number   2
_chemical_formula_structural   Sr
_chemical_formula_sum   Sr18
_cell_volume   340.27422445
_cell_formula_units_Z   18
loop_
 _symmetry_equiv_pos_site_id
 _symmetry_equiv_pos_as_xyz
  1  'x, y, z'
  2  '-x, -y, -z'
loop_
 _atom_site_type_symbol
 _atom_site_label
 _atom_site_symmetry_multiplicity
 _atom_site_fract_x
 _atom_site_fract_y
 _atom_site_fract_z
 _atom_site_occupancy
  Sr  Sr0  2  0.025564  0.801187  0.975119  1
  Sr  Sr1  2  0.108529  0.955706  0.350210  1
  Sr  Sr2  2  0.133470  0.565549  0.288444  1
  Sr  Sr3  2  0.207490  0.752763  0.687063  1
  Sr  Sr4  2  0.227073  0.364102  0.645782  1
  Sr  Sr5  2  0.322582  0.534588  0.030204  1
  Sr  Sr6  2  0.350764  0.128472  0.986661  1
  Sr  Sr7  2  0.437850  0.311511  0.373581  1
  Sr  Sr8  2  0.471424  0.896933  0.301505  1
