# generated using pymatgen
data_Sr
_symmetry_space_group_name_H-M   P1
_cell_length_a   7.67992807
_cell_length_b   8.12126315
_cell_length_c   8.24162246
_cell_angle_alpha   64.59548708
_cell_angle_beta   79.52892086
_cell_angle_gamma   66.62267932
_symmetry_Int_Tables_number   1
_chemical_formula_structural   Sr
_chemical_formula_sum   Sr21
_cell_volume   426.17230625
_cell_formula_units_Z   21
loop_
 _symmetry_equiv_pos_site_id
 _symmetry_equiv_pos_as_xyz
  1  'x, y, z'
loop_
 _atom_site_type_symbol
 _atom_site_label
 _atom_site_symmetry_multiplicity
 _atom_site_fract_x
 _atom_site_fract_y
 _atom_site_fract_z
 _atom_site_occupancy
  Sr  Sr0  1  0.049732  0.400166  0.753273  1
  Sr  Sr1  1  0.074576  0.988238  0.009205  1
  Sr  Sr2  1  0.154843  0.254512  0.483524  1
  Sr  Sr3  1  0.176889  0.244006  0.104544  1
  Sr  Sr4  1  0.223554  0.653211  0.314866  1
  Sr  Sr5  1  0.226284  0.672643  0.688792  1
  Sr  Sr6  1  0.348589  0.906637  0.767053  1
  Sr  Sr7  1  0.349375  0.496141  0.057563  1
  Sr  Sr8  1  0.403519  0.929812  0.370394  1
  Sr  Sr9  1  0.462328  0.170235  0.831499  1
  Sr  Sr10  1  0.527616  0.790866  0.094141  1
  Sr  Sr11  1  0.540777  0.219311  0.414594  1
  Sr  Sr12  1  0.575999  0.486194  0.538944  1
  Sr  Sr13  1  0.683569  0.440909  0.864483  1
  Sr  Sr14  1  0.693733  0.063007  0.134745  1
  Sr  Sr15  1  0.725293  0.805695  0.658626  1
  Sr  Sr16  1  0.792964  0.414213  0.182144  1
  Sr  Sr17  1  0.851318  0.644303  0.368324  1
  Sr  Sr18  1  0.864983  0.116783  0.691036  1
  Sr  Sr19  1  0.928067  0.737832  0.954840  1
  Sr  Sr20  1  0.977569  0.000883  0.400679  1
