# generated using pymatgen
data_Sr
_symmetry_space_group_name_H-M   P1
_cell_length_a   4.88052030
_cell_length_b   6.13045894
_cell_length_c   6.22969723
_cell_angle_alpha   83.42170559
_cell_angle_beta   67.54908812
_cell_angle_gamma   70.96696802
_symmetry_Int_Tables_number   1
_chemical_formula_structural   Sr
_chemical_formula_sum   Sr5
_cell_volume   162.83613045
_cell_formula_units_Z   5
loop_
 _symmetry_equiv_pos_site_id
 _symmetry_equiv_pos_as_xyz
  1  'x, y, z'
loop_
 _atom_site_type_symbol
 _atom_site_label
 _atom_site_symmetry_multiplicity
 _atom_site_fract_x
 _atom_site_fract_y
 _atom_site_fract_z
 _atom_site_occupancy
  Sr  Sr0  1  0.043677  0.462120  0.525647  1
  Sr  Sr1  1  0.201376  0.723942  0.903962  1
  Sr  Sr2  1  0.438435  0.862957  0.311579  1
  Sr  Sr3  1  0.583303  0.134552  0.746619  1
  Sr  Sr4  1  0.783076  0.316464  0.158694  1
