# generated using pymatgen
data_Sr
_symmetry_space_group_name_H-M   P-1
_cell_length_a   5.56449637
_cell_length_b   5.79699889
_cell_length_c   7.35158814
_cell_angle_alpha   99.52838390
_cell_angle_beta   111.96612210
_cell_angle_gamma   90.03095175
_symmetry_Int_Tables_number   2
_chemical_formula_structural   Sr
_chemical_formula_sum   Sr10
_cell_volume   216.38707301
_cell_formula_units_Z   10
loop_
 _symmetry_equiv_pos_site_id
 _symmetry_equiv_pos_as_xyz
  1  'x, y, z'
  2  '-x, -y+557/561, -z+14/685'
  3  'x-z+7/685, -y+311/631, -z+14/685'
  4  '-x+z+678/685, y+1/2, z'
loop_
 _atom_site_type_symbol
 _atom_site_label
 _atom_site_symmetry_multiplicity
 _atom_site_fract_x
 _atom_site_fract_y
 _atom_site_fract_z
 _atom_site_occupancy
  Sr  Sr0  4  0.009746  0.956552  0.195039  1
  Sr  Sr1  4  0.217637  0.361595  0.598207  1
  Sr  Sr2  2  0.427313  0.747441  0.008886  1
