# generated using pymatgen
data_Sr
_symmetry_space_group_name_H-M   P1
_cell_length_a   5.75770226
_cell_length_b   6.17361831
_cell_length_c   7.38427034
_cell_angle_alpha   73.73579211
_cell_angle_beta   69.05556041
_cell_angle_gamma   88.92732706
_symmetry_Int_Tables_number   1
_chemical_formula_structural   Sr
_chemical_formula_sum   Sr11
_cell_volume   234.35542602
_cell_formula_units_Z   11
loop_
 _symmetry_equiv_pos_site_id
 _symmetry_equiv_pos_as_xyz
  1  'x, y, z'
loop_
 _atom_site_type_symbol
 _atom_site_label
 _atom_site_symmetry_multiplicity
 _atom_site_fract_x
 _atom_site_fract_y
 _atom_site_fract_z
 _atom_site_occupancy
  Sr  Sr0  1  0.093972  0.492426  0.438096  1
  Sr  Sr1  1  0.158940  0.722466  0.976895  1
  Sr  Sr2  1  0.175680  0.908112  0.519778  1
  Sr  Sr3  1  0.198442  0.254416  0.785650  1
  Sr  Sr4  1  0.356135  0.269628  0.147182  1
  Sr  Sr5  1  0.552530  0.802077  0.151496  1
  Sr  Sr6  1  0.566263  0.676633  0.620683  1
  Sr  Sr7  1  0.635059  0.310627  0.404672  1
  Sr  Sr8  1  0.738830  0.070733  0.758723  1
  Sr  Sr9  1  0.795803  0.505982  0.898119  1
  Sr  Sr10  1  0.915802  0.002562  0.241165  1
