# generated using pymatgen
data_Sr
_symmetry_space_group_name_H-M   P-1
_cell_length_a   5.65569982
_cell_length_b   7.42004948
_cell_length_c   8.06991518
_cell_angle_alpha   79.89296149
_cell_angle_beta   89.90947747
_cell_angle_gamma   67.68510694
_symmetry_Int_Tables_number   2
_chemical_formula_structural   Sr
_chemical_formula_sum   Sr14
_cell_volume   307.64718048
_cell_formula_units_Z   14
loop_
 _symmetry_equiv_pos_site_id
 _symmetry_equiv_pos_as_xyz
  1  'x, y, z'
  2  '-x, -y, -z'
loop_
 _atom_site_type_symbol
 _atom_site_label
 _atom_site_symmetry_multiplicity
 _atom_site_fract_x
 _atom_site_fract_y
 _atom_site_fract_z
 _atom_site_occupancy
  Sr  Sr0  2  0.050187  0.581401  0.316853  1
  Sr  Sr1  2  0.073390  0.173820  0.380133  1
  Sr  Sr2  2  0.177237  0.283161  0.042885  1
  Sr  Sr3  2  0.235967  0.870731  0.093625  1
  Sr  Sr4  2  0.342943  0.980926  0.748177  1
  Sr  Sr5  2  0.404516  0.550203  0.833566  1
  Sr  Sr6  2  0.474945  0.726685  0.459702  1
