# generated using pymatgen
data_Sr
_symmetry_space_group_name_H-M   P1
_cell_length_a   3.53434549
_cell_length_b   3.55959422
_cell_length_c   12.08520742
_cell_angle_alpha   81.76011685
_cell_angle_beta   89.76624134
_cell_angle_gamma   62.63195904
_symmetry_Int_Tables_number   1
_chemical_formula_structural   Sr
_chemical_formula_sum   Sr4
_cell_volume   133.29954986
_cell_formula_units_Z   4
loop_
 _symmetry_equiv_pos_site_id
 _symmetry_equiv_pos_as_xyz
  1  'x, y, z'
loop_
 _atom_site_type_symbol
 _atom_site_label
 _atom_site_symmetry_multiplicity
 _atom_site_fract_x
 _atom_site_fract_y
 _atom_site_fract_z
 _atom_site_occupancy
  Sr  Sr0  1  0.236297  0.487748  0.162339  1
  Sr  Sr1  1  0.253368  0.114596  0.886423  1
  Sr  Sr2  1  0.633189  0.673477  0.402603  1
  Sr  Sr3  1  0.931432  0.773085  0.640618  1
