# generated using pymatgen
data_Sr
_symmetry_space_group_name_H-M   Cm
_cell_length_a   12.24155048
_cell_length_b   3.52346206
_cell_length_c   5.62668858
_cell_angle_alpha   90.00000000
_cell_angle_beta   102.18340337
_cell_angle_gamma   90.00000000
_symmetry_Int_Tables_number   8
_chemical_formula_structural   Sr
_chemical_formula_sum   Sr6
_cell_volume   237.22774630
_cell_formula_units_Z   6
loop_
 _symmetry_equiv_pos_site_id
 _symmetry_equiv_pos_as_xyz
  1  'x, y, z'
  2  'x, -y, z'
  3  'x+1/2, y+1/2, z'
  4  'x+1/2, -y+1/2, z'
loop_
 _atom_site_type_symbol
 _atom_site_label
 _atom_site_symmetry_multiplicity
 _atom_site_fract_x
 _atom_site_fract_y
 _atom_site_fract_z
 _atom_site_occupancy
  Sr  Sr0  2  0.045426  0.500000  0.954396  1
  Sr  Sr1  2  0.218055  0.000000  0.520445  1
  Sr  Sr2  2  0.466443  0.500000  0.449366  1
