# generated using pymatgen
data_Sr
_symmetry_space_group_name_H-M   P1
_cell_length_a   5.95233200
_cell_length_b   6.21518719
_cell_length_c   6.26981053
_cell_angle_alpha   119.20245619
_cell_angle_beta   90.92811171
_cell_angle_gamma   90.27212605
_symmetry_Int_Tables_number   1
_chemical_formula_structural   Sr
_chemical_formula_sum   Sr9
_cell_volume   202.42224152
_cell_formula_units_Z   9
loop_
 _symmetry_equiv_pos_site_id
 _symmetry_equiv_pos_as_xyz
  1  'x, y, z'
loop_
 _atom_site_type_symbol
 _atom_site_label
 _atom_site_symmetry_multiplicity
 _atom_site_fract_x
 _atom_site_fract_y
 _atom_site_fract_z
 _atom_site_occupancy
  Sr  Sr0  1  0.041766  0.658876  0.240397  1
  Sr  Sr1  1  0.092206  0.906841  0.746736  1
  Sr  Sr2  1  0.215579  0.496694  0.753785  1
  Sr  Sr3  1  0.366874  0.062535  0.344541  1
  Sr  Sr4  1  0.425290  0.231422  0.001947  1
  Sr  Sr5  1  0.563597  0.667769  0.462660  1
  Sr  Sr6  1  0.669622  0.709275  0.928530  1
  Sr  Sr7  1  0.783429  0.213581  0.672907  1
  Sr  Sr8  1  0.899490  0.205303  0.228318  1
