# generated using pymatgen
data_Sr
_symmetry_space_group_name_H-M   P1
_cell_length_a   5.96923676
_cell_length_b   6.28950089
_cell_length_c   8.26371404
_cell_angle_alpha   90.36758495
_cell_angle_beta   109.74736321
_cell_angle_gamma   90.63725273
_symmetry_Int_Tables_number   1
_chemical_formula_structural   Sr
_chemical_formula_sum   Sr14
_cell_volume   291.96853968
_cell_formula_units_Z   14
loop_
 _symmetry_equiv_pos_site_id
 _symmetry_equiv_pos_as_xyz
  1  'x, y, z'
loop_
 _atom_site_type_symbol
 _atom_site_label
 _atom_site_symmetry_multiplicity
 _atom_site_fract_x
 _atom_site_fract_y
 _atom_site_fract_z
 _atom_site_occupancy
  Sr  Sr0  1  0.107537  0.227047  0.267362  1
  Sr  Sr1  1  0.158443  0.835857  0.441980  1
  Sr  Sr2  1  0.182149  0.833242  0.031799  1
  Sr  Sr3  1  0.212013  0.068819  0.758693  1
  Sr  Sr4  1  0.378946  0.372283  0.013745  1
  Sr  Sr5  1  0.430344  0.613371  0.745253  1
  Sr  Sr6  1  0.472984  0.591736  0.357886  1
  Sr  Sr7  1  0.533638  0.194996  0.550407  1
  Sr  Sr8  1  0.630405  0.043003  0.260951  1
  Sr  Sr9  1  0.689719  0.973559  0.920771  1
  Sr  Sr10  1  0.805886  0.595727  0.180298  1
  Sr  Sr11  1  0.817856  0.810109  0.631614  1
  Sr  Sr12  1  0.870968  0.375479  0.875147  1
  Sr  Sr13  1  0.989161  0.395276  0.547628  1
