# generated using pymatgen
data_Sr
_symmetry_space_group_name_H-M   P1
_cell_length_a   5.97967624
_cell_length_b   6.06784489
_cell_length_c   6.11925040
_cell_angle_alpha   64.61736268
_cell_angle_beta   65.67018513
_cell_angle_gamma   64.60128134
_symmetry_Int_Tables_number   1
_chemical_formula_structural   Sr
_chemical_formula_sum   Sr7
_cell_volume   173.98413079
_cell_formula_units_Z   7
loop_
 _symmetry_equiv_pos_site_id
 _symmetry_equiv_pos_as_xyz
  1  'x, y, z'
loop_
 _atom_site_type_symbol
 _atom_site_label
 _atom_site_symmetry_multiplicity
 _atom_site_fract_x
 _atom_site_fract_y
 _atom_site_fract_z
 _atom_site_occupancy
  Sr  Sr0  1  0.131837  0.557095  0.349148  1
  Sr  Sr1  1  0.340000  0.095168  0.162909  1
  Sr  Sr2  1  0.342796  0.952862  0.759148  1
  Sr  Sr3  1  0.561797  0.506608  0.516856  1
  Sr  Sr4  1  0.780120  0.301499  0.953045  1
  Sr  Sr5  1  0.841727  0.028706  0.435199  1
  Sr  Sr6  1  0.923810  0.721459  0.910281  1
