# generated using pymatgen
data_Sr
_symmetry_space_group_name_H-M   C2
_cell_length_a   10.97753809
_cell_length_b   6.32729672
_cell_length_c   5.93721110
_cell_angle_alpha   90.00000000
_cell_angle_beta   93.65844353
_cell_angle_gamma   90.00000000
_symmetry_Int_Tables_number   5
_chemical_formula_structural   Sr
_chemical_formula_sum   Sr18
_cell_volume   411.54726484
_cell_formula_units_Z   18
loop_
 _symmetry_equiv_pos_site_id
 _symmetry_equiv_pos_as_xyz
  1  'x, y, z'
  2  '-x, y, -z'
  3  'x+1/2, y+1/2, z'
  4  '-x+1/2, y+1/2, -z'
loop_
 _atom_site_type_symbol
 _atom_site_label
 _atom_site_symmetry_multiplicity
 _atom_site_fract_x
 _atom_site_fract_y
 _atom_site_fract_z
 _atom_site_occupancy
  Sr  Sr0  4  0.086528  0.260700  0.192861  1
  Sr  Sr1  4  0.127103  0.056946  0.663493  1
  Sr  Sr2  4  0.127386  0.611041  0.539189  1
  Sr  Sr3  4  0.233137  0.903446  0.115814  1
  Sr  Sr4  2  0.000000  0.698311  0.000000  1
