# generated using pymatgen
data_Sr
_symmetry_space_group_name_H-M   P1
_cell_length_a   6.77531590
_cell_length_b   6.85419521
_cell_length_c   6.85666467
_cell_angle_alpha   84.37747309
_cell_angle_beta   89.68251946
_cell_angle_gamma   71.79426475
_symmetry_Int_Tables_number   1
_chemical_formula_structural   Sr
_chemical_formula_sum   Sr15
_cell_volume   300.91806529
_cell_formula_units_Z   15
loop_
 _symmetry_equiv_pos_site_id
 _symmetry_equiv_pos_as_xyz
  1  'x, y, z'
loop_
 _atom_site_type_symbol
 _atom_site_label
 _atom_site_symmetry_multiplicity
 _atom_site_fract_x
 _atom_site_fract_y
 _atom_site_fract_z
 _atom_site_occupancy
  Sr  Sr0  1  0.104407  0.084567  0.029938  1
  Sr  Sr1  1  0.108266  0.412620  0.715628  1
  Sr  Sr2  1  0.120793  0.741376  0.364789  1
  Sr  Sr3  1  0.290574  0.413836  0.097068  1
  Sr  Sr4  1  0.321626  0.083293  0.439885  1
  Sr  Sr5  1  0.323014  0.733520  0.761613  1
  Sr  Sr6  1  0.491579  0.411767  0.512353  1
  Sr  Sr7  1  0.501447  0.746292  0.171948  1
  Sr  Sr8  1  0.521364  0.085577  0.827125  1
  Sr  Sr9  1  0.681581  0.758637  0.567100  1
  Sr  Sr10  1  0.697441  0.424332  0.913267  1
  Sr  Sr11  1  0.712151  0.081047  0.242668  1
  Sr  Sr12  1  0.890263  0.731743  0.962199  1
  Sr  Sr13  1  0.906939  0.077690  0.629777  1
  Sr  Sr14  1  0.928621  0.417341  0.317637  1
