# generated using pymatgen
data_Sr
_symmetry_space_group_name_H-M   P1
_cell_length_a   3.72912639
_cell_length_b   3.96302566
_cell_length_c   8.18810402
_cell_angle_alpha   93.13732282
_cell_angle_beta   100.77474791
_cell_angle_gamma   92.49490724
_symmetry_Int_Tables_number   1
_chemical_formula_structural   Sr
_chemical_formula_sum   Sr3
_cell_volume   118.51890191
_cell_formula_units_Z   3
loop_
 _symmetry_equiv_pos_site_id
 _symmetry_equiv_pos_as_xyz
  1  'x, y, z'
loop_
 _atom_site_type_symbol
 _atom_site_label
 _atom_site_symmetry_multiplicity
 _atom_site_fract_x
 _atom_site_fract_y
 _atom_site_fract_z
 _atom_site_occupancy
  Sr  Sr0  1  0.085209  0.697683  0.374186  1
  Sr  Sr1  1  0.269042  0.152861  0.031531  1
  Sr  Sr2  1  0.644293  0.240347  0.635932  1
