# generated using pymatgen
data_Sr
_symmetry_space_group_name_H-M   P1
_cell_length_a   5.73301871
_cell_length_b   5.79381976
_cell_length_c   13.35978925
_cell_angle_alpha   101.28156574
_cell_angle_beta   97.30578746
_cell_angle_gamma   90.99628996
_symmetry_Int_Tables_number   1
_chemical_formula_structural   Sr
_chemical_formula_sum   Sr20
_cell_volume   431.24464034
_cell_formula_units_Z   20
loop_
 _symmetry_equiv_pos_site_id
 _symmetry_equiv_pos_as_xyz
  1  'x, y, z'
loop_
 _atom_site_type_symbol
 _atom_site_label
 _atom_site_symmetry_multiplicity
 _atom_site_fract_x
 _atom_site_fract_y
 _atom_site_fract_z
 _atom_site_occupancy
  Sr  Sr0  1  0.000355  0.026396  0.524842  1
  Sr  Sr1  1  0.060772  0.050999  0.872824  1
  Sr  Sr2  1  0.186637  0.168749  0.302090  1
  Sr  Sr3  1  0.202895  0.573315  0.916686  1
  Sr  Sr4  1  0.244583  0.032078  0.089673  1
  Sr  Sr5  1  0.278704  0.476688  0.707611  1
  Sr  Sr6  1  0.312595  0.658489  0.323402  1
  Sr  Sr7  1  0.372557  0.984710  0.694193  1
  Sr  Sr8  1  0.399730  0.569330  0.121364  1
  Sr  Sr9  1  0.429263  0.566182  0.520719  1
  Sr  Sr10  1  0.493904  0.067031  0.481066  1
  Sr  Sr11  1  0.558363  0.168193  0.919282  1
  Sr  Sr12  1  0.675302  0.256926  0.270937  1
  Sr  Sr13  1  0.682692  0.670771  0.879971  1
  Sr  Sr14  1  0.772629  0.891430  0.091283  1
  Sr  Sr15  1  0.796563  0.281079  0.714579  1
  Sr  Sr16  1  0.824780  0.782437  0.313277  1
  Sr  Sr17  1  0.842496  0.747547  0.672557  1
  Sr  Sr18  1  0.912073  0.429334  0.095389  1
  Sr  Sr19  1  0.912152  0.476773  0.474296  1
