# generated using pymatgen
data_Sr
_symmetry_space_group_name_H-M   Cm
_cell_length_a   6.18861996
_cell_length_b   3.65954605
_cell_length_c   13.43620476
_cell_angle_alpha   90.00000000
_cell_angle_beta   100.07598715
_cell_angle_gamma   90.00000000
_symmetry_Int_Tables_number   8
_chemical_formula_structural   Sr
_chemical_formula_sum   Sr10
_cell_volume   299.60368424
_cell_formula_units_Z   10
loop_
 _symmetry_equiv_pos_site_id
 _symmetry_equiv_pos_as_xyz
  1  'x, y, z'
  2  'x, -y, z'
  3  'x+1/2, y+1/2, z'
  4  'x+1/2, -y+1/2, z'
loop_
 _atom_site_type_symbol
 _atom_site_label
 _atom_site_symmetry_multiplicity
 _atom_site_fract_x
 _atom_site_fract_y
 _atom_site_fract_z
 _atom_site_occupancy
  Sr  Sr0  2  0.032963  0.500000  0.973482  1
  Sr  Sr1  2  0.103593  0.500000  0.419150  1
  Sr  Sr2  2  0.116278  0.000000  0.213648  1
  Sr  Sr3  2  0.223639  0.500000  0.759714  1
  Sr  Sr4  2  0.328008  0.000000  0.587413  1
