# generated using pymatgen
data_Sr
_symmetry_space_group_name_H-M   P1
_cell_length_a   3.60841220
_cell_length_b   5.64402056
_cell_length_c   5.71940795
_cell_angle_alpha   103.25024348
_cell_angle_beta   99.60336678
_cell_angle_gamma   93.79061703
_symmetry_Int_Tables_number   1
_chemical_formula_structural   Sr
_chemical_formula_sum   Sr4
_cell_volume   111.12865818
_cell_formula_units_Z   4
loop_
 _symmetry_equiv_pos_site_id
 _symmetry_equiv_pos_as_xyz
  1  'x, y, z'
loop_
 _atom_site_type_symbol
 _atom_site_label
 _atom_site_symmetry_multiplicity
 _atom_site_fract_x
 _atom_site_fract_y
 _atom_site_fract_z
 _atom_site_occupancy
  Sr  Sr0  1  0.002771  0.184060  0.366628  1
  Sr  Sr1  1  0.258430  0.931973  0.829840  1
  Sr  Sr2  1  0.435384  0.708982  0.366166  1
  Sr  Sr3  1  0.814119  0.422576  0.923923  1
