# generated using pymatgen
data_Sr
_symmetry_space_group_name_H-M   P1
_cell_length_a   5.89367215
_cell_length_b   5.91431451
_cell_length_c   6.53040125
_cell_angle_alpha   89.99098339
_cell_angle_beta   90.95840530
_cell_angle_gamma   114.78559145
_symmetry_Int_Tables_number   1
_chemical_formula_structural   Sr
_chemical_formula_sum   Sr8
_cell_volume   206.62694928
_cell_formula_units_Z   8
loop_
 _symmetry_equiv_pos_site_id
 _symmetry_equiv_pos_as_xyz
  1  'x, y, z'
loop_
 _atom_site_type_symbol
 _atom_site_label
 _atom_site_symmetry_multiplicity
 _atom_site_fract_x
 _atom_site_fract_y
 _atom_site_fract_z
 _atom_site_occupancy
  Sr  Sr0  1  0.025927  0.816277  0.355225  1
  Sr  Sr1  1  0.049753  0.220043  0.722428  1
  Sr  Sr2  1  0.408344  0.843457  0.950622  1
  Sr  Sr3  1  0.410165  0.360166  0.089911  1
  Sr  Sr4  1  0.449111  0.679325  0.469165  1
  Sr  Sr5  1  0.575110  0.228296  0.580419  1
  Sr  Sr6  1  0.878725  0.226404  0.195699  1
  Sr  Sr7  1  0.892195  0.695190  0.875713  1
