# generated using pymatgen
data_Sr
_symmetry_space_group_name_H-M   P1
_cell_length_a   5.70378765
_cell_length_b   5.74921658
_cell_length_c   8.20791992
_cell_angle_alpha   82.05211861
_cell_angle_beta   72.31823579
_cell_angle_gamma   61.42367684
_symmetry_Int_Tables_number   1
_chemical_formula_structural   Sr
_chemical_formula_sum   Sr11
_cell_volume   225.19382272
_cell_formula_units_Z   11
loop_
 _symmetry_equiv_pos_site_id
 _symmetry_equiv_pos_as_xyz
  1  'x, y, z'
loop_
 _atom_site_type_symbol
 _atom_site_label
 _atom_site_symmetry_multiplicity
 _atom_site_fract_x
 _atom_site_fract_y
 _atom_site_fract_z
 _atom_site_occupancy
  Sr  Sr0  1  0.103368  0.222547  0.185429  1
  Sr  Sr1  1  0.176797  0.366937  0.854436  1
  Sr  Sr2  1  0.191731  0.812370  0.953149  1
  Sr  Sr3  1  0.283283  0.813071  0.570265  1
  Sr  Sr4  1  0.432534  0.236877  0.521764  1
  Sr  Sr5  1  0.522758  0.393221  0.188907  1
  Sr  Sr6  1  0.638681  0.818876  0.172136  1
  Sr  Sr7  1  0.703729  0.790972  0.785578  1
  Sr  Sr8  1  0.732395  0.239944  0.855575  1
  Sr  Sr9  1  0.855509  0.428389  0.509219  1
  Sr  Sr10  1  0.988450  0.816629  0.355042  1
