# generated using pymatgen
data_Sr
_symmetry_space_group_name_H-M   P1
_cell_length_a   5.53123996
_cell_length_b   6.48383096
_cell_length_c   8.70204833
_cell_angle_alpha   91.01574573
_cell_angle_beta   104.14642238
_cell_angle_gamma   93.73275210
_symmetry_Int_Tables_number   1
_chemical_formula_structural   Sr
_chemical_formula_sum   Sr15
_cell_volume   301.79821746
_cell_formula_units_Z   15
loop_
 _symmetry_equiv_pos_site_id
 _symmetry_equiv_pos_as_xyz
  1  'x, y, z'
loop_
 _atom_site_type_symbol
 _atom_site_label
 _atom_site_symmetry_multiplicity
 _atom_site_fract_x
 _atom_site_fract_y
 _atom_site_fract_z
 _atom_site_occupancy
  Sr  Sr0  1  0.094617  0.582298  0.998492  1
  Sr  Sr1  1  0.102522  0.370243  0.731569  1
  Sr  Sr2  1  0.119724  0.427854  0.305421  1
  Sr  Sr3  1  0.210418  0.719798  0.602876  1
  Sr  Sr4  1  0.278267  0.023762  0.922225  1
  Sr  Sr5  1  0.291518  0.877371  0.246085  1
  Sr  Sr6  1  0.307594  0.113252  0.532916  1
  Sr  Sr7  1  0.512963  0.340739  0.158328  1
  Sr  Sr8  1  0.592038  0.692497  0.943709  1
  Sr  Sr9  1  0.617699  0.542148  0.525317  1
  Sr  Sr10  1  0.630440  0.297926  0.816952  1
  Sr  Sr11  1  0.776795  0.758463  0.284199  1
  Sr  Sr12  1  0.787970  0.152704  0.435831  1
  Sr  Sr13  1  0.816472  0.891406  0.716977  1
  Sr  Sr14  1  0.890819  0.098067  0.081593  1
