# generated using pymatgen
data_Sr
_symmetry_space_group_name_H-M   P1
_cell_length_a   5.25338669
_cell_length_b   5.75060520
_cell_length_c   8.28075264
_cell_angle_alpha   93.15229613
_cell_angle_beta   104.45648416
_cell_angle_gamma   111.05562463
_symmetry_Int_Tables_number   1
_chemical_formula_structural   Sr
_chemical_formula_sum   Sr9
_cell_volume   223.15188066
_cell_formula_units_Z   9
loop_
 _symmetry_equiv_pos_site_id
 _symmetry_equiv_pos_as_xyz
  1  'x, y, z'
loop_
 _atom_site_type_symbol
 _atom_site_label
 _atom_site_symmetry_multiplicity
 _atom_site_fract_x
 _atom_site_fract_y
 _atom_site_fract_z
 _atom_site_occupancy
  Sr  Sr0  1  0.001241  0.392795  0.954260  1
  Sr  Sr1  1  0.011170  0.068608  0.280320  1
  Sr  Sr2  1  0.030317  0.740772  0.622456  1
  Sr  Sr3  1  0.343472  0.336663  0.679683  1
  Sr  Sr4  1  0.353015  0.690211  0.333144  1
  Sr  Sr5  1  0.362737  0.016499  0.013737  1
  Sr  Sr6  1  0.631416  0.607207  0.051520  1
  Sr  Sr7  1  0.640466  0.931472  0.720076  1
  Sr  Sr8  1  0.649347  0.287332  0.394697  1
