# generated using pymatgen
data_Sr
_symmetry_space_group_name_H-M   P1
_cell_length_a   6.06522132
_cell_length_b   6.19518622
_cell_length_c   6.37511920
_cell_angle_alpha   81.89382240
_cell_angle_beta   86.92078428
_cell_angle_gamma   64.20019003
_symmetry_Int_Tables_number   1
_chemical_formula_structural   Sr
_chemical_formula_sum   Sr8
_cell_volume   213.50557593
_cell_formula_units_Z   8
loop_
 _symmetry_equiv_pos_site_id
 _symmetry_equiv_pos_as_xyz
  1  'x, y, z'
loop_
 _atom_site_type_symbol
 _atom_site_label
 _atom_site_symmetry_multiplicity
 _atom_site_fract_x
 _atom_site_fract_y
 _atom_site_fract_z
 _atom_site_occupancy
  Sr  Sr0  1  0.346757  0.342243  0.485149  1
  Sr  Sr1  1  0.358438  0.620421  0.935772  1
  Sr  Sr2  1  0.436997  0.776933  0.371391  1
  Sr  Sr3  1  0.520807  0.104844  0.928002  1
  Sr  Sr4  1  0.810852  0.673061  0.708361  1
  Sr  Sr5  1  0.879498  0.019874  0.265831  1
  Sr  Sr6  1  0.969318  0.446072  0.165443  1
  Sr  Sr7  1  0.998981  0.121488  0.724626  1
