# generated using pymatgen
data_Sr
_symmetry_space_group_name_H-M   P1
_cell_length_a   5.91002527
_cell_length_b   6.16993461
_cell_length_c   8.30598931
_cell_angle_alpha   103.57885381
_cell_angle_beta   95.17750959
_cell_angle_gamma   92.45280784
_symmetry_Int_Tables_number   1
_chemical_formula_structural   Sr
_chemical_formula_sum   Sr13
_cell_volume   292.56516447
_cell_formula_units_Z   13
loop_
 _symmetry_equiv_pos_site_id
 _symmetry_equiv_pos_as_xyz
  1  'x, y, z'
loop_
 _atom_site_type_symbol
 _atom_site_label
 _atom_site_symmetry_multiplicity
 _atom_site_fract_x
 _atom_site_fract_y
 _atom_site_fract_z
 _atom_site_occupancy
  Sr  Sr0  1  0.026300  0.858971  0.032258  1
  Sr  Sr1  1  0.114252  0.535740  0.691033  1
  Sr  Sr2  1  0.227061  0.202220  0.287375  1
  Sr  Sr3  1  0.308737  0.485295  0.065365  1
  Sr  Sr4  1  0.391898  0.700772  0.433609  1
  Sr  Sr5  1  0.420708  0.047391  0.871930  1
  Sr  Sr6  1  0.440756  0.172928  0.589369  1
  Sr  Sr7  1  0.601363  0.891921  0.156424  1
  Sr  Sr8  1  0.638804  0.623305  0.765634  1
  Sr  Sr9  1  0.788938  0.334607  0.381118  1
  Sr  Sr10  1  0.808410  0.391228  0.046036  1
  Sr  Sr11  1  0.918350  0.829390  0.430480  1
  Sr  Sr12  1  0.946100  0.094595  0.771158  1
