# generated using pymatgen
data_Sr
_symmetry_space_group_name_H-M   P1
_cell_length_a   5.95919538
_cell_length_b   8.19705096
_cell_length_c   8.20090576
_cell_angle_alpha   91.14522861
_cell_angle_beta   110.13790528
_cell_angle_gamma   111.15074832
_symmetry_Int_Tables_number   1
_chemical_formula_structural   Sr
_chemical_formula_sum   Sr16
_cell_volume   345.97997301
_cell_formula_units_Z   16
loop_
 _symmetry_equiv_pos_site_id
 _symmetry_equiv_pos_as_xyz
  1  'x, y, z'
loop_
 _atom_site_type_symbol
 _atom_site_label
 _atom_site_symmetry_multiplicity
 _atom_site_fract_x
 _atom_site_fract_y
 _atom_site_fract_z
 _atom_site_occupancy
  Sr  Sr0  1  0.203591  0.166604  0.744203  1
  Sr  Sr1  1  0.221790  0.503779  0.932522  1
  Sr  Sr2  1  0.223905  0.001409  0.424784  1
  Sr  Sr3  1  0.236789  0.680537  0.256065  1
  Sr  Sr4  1  0.262459  0.997826  0.080963  1
  Sr  Sr5  1  0.266100  0.333999  0.251336  1
  Sr  Sr6  1  0.283644  0.499799  0.596973  1
  Sr  Sr7  1  0.303433  0.851791  0.761995  1
  Sr  Sr8  1  0.666502  0.366415  0.070322  1
  Sr  Sr9  1  0.675686  0.320425  0.609950  1
  Sr  Sr10  1  0.687514  0.865347  0.585908  1
  Sr  Sr11  1  0.697478  0.830695  0.117089  1
  Sr  Sr12  1  0.801177  0.148173  0.358935  1
  Sr  Sr13  1  0.813504  0.654471  0.864508  1
  Sr  Sr14  1  0.815555  0.132737  0.904745  1
  Sr  Sr15  1  0.821249  0.624733  0.408606  1
