# generated using pymatgen
data_Sr
_symmetry_space_group_name_H-M   P-1
_cell_length_a   5.52797850
_cell_length_b   7.86554827
_cell_length_c   8.36444838
_cell_angle_alpha   88.40120582
_cell_angle_beta   70.74523122
_cell_angle_gamma   75.23887094
_symmetry_Int_Tables_number   2
_chemical_formula_structural   Sr
_chemical_formula_sum   Sr15
_cell_volume   331.38714343
_cell_formula_units_Z   15
loop_
 _symmetry_equiv_pos_site_id
 _symmetry_equiv_pos_as_xyz
  1  'x, y, z'
  2  '-x, -y, -z'
loop_
 _atom_site_type_symbol
 _atom_site_label
 _atom_site_symmetry_multiplicity
 _atom_site_fract_x
 _atom_site_fract_y
 _atom_site_fract_z
 _atom_site_occupancy
  Sr  Sr0  2  0.083836  0.680826  0.405366  1
  Sr  Sr1  2  0.101641  0.992881  0.796032  1
  Sr  Sr2  2  0.111148  0.346580  0.213593  1
  Sr  Sr3  2  0.286834  0.656081  0.996574  1
  Sr  Sr4  2  0.305439  0.001433  0.403707  1
  Sr  Sr5  2  0.311418  0.346435  0.796156  1
  Sr  Sr6  2  0.492843  0.671966  0.600216  1
  Sr  Sr7  1  0.500000  0.000000  0.000000  1
