# generated using pymatgen
data_Sr
_symmetry_space_group_name_H-M   P1
_cell_length_a   5.65285431
_cell_length_b   7.46312030
_cell_length_c   8.07333884
_cell_angle_alpha   91.33146724
_cell_angle_beta   108.23063644
_cell_angle_gamma   90.60943099
_symmetry_Int_Tables_number   1
_chemical_formula_structural   Sr
_chemical_formula_sum   Sr16
_cell_volume   323.35629472
_cell_formula_units_Z   16
loop_
 _symmetry_equiv_pos_site_id
 _symmetry_equiv_pos_as_xyz
  1  'x, y, z'
loop_
 _atom_site_type_symbol
 _atom_site_label
 _atom_site_symmetry_multiplicity
 _atom_site_fract_x
 _atom_site_fract_y
 _atom_site_fract_z
 _atom_site_occupancy
  Sr  Sr0  1  0.064698  0.080050  0.673526  1
  Sr  Sr1  1  0.107684  0.764672  0.488023  1
  Sr  Sr2  1  0.136407  0.043040  0.273562  1
  Sr  Sr3  1  0.150945  0.872135  0.962309  1
  Sr  Sr4  1  0.344720  0.360449  0.414439  1
  Sr  Sr5  1  0.369296  0.538856  0.748901  1
  Sr  Sr6  1  0.447414  0.653393  0.231018  1
  Sr  Sr7  1  0.478359  0.338332  0.038790  1
  Sr  Sr8  1  0.539899  0.159707  0.725517  1
  Sr  Sr9  1  0.620142  0.852138  0.925567  1
  Sr  Sr10  1  0.626205  0.859077  0.532046  1
  Sr  Sr11  1  0.644429  0.054080  0.231267  1
  Sr  Sr12  1  0.858261  0.360315  0.474811  1
  Sr  Sr13  1  0.864485  0.581524  0.744314  1
  Sr  Sr14  1  0.909928  0.586730  0.166134  1
  Sr  Sr15  1  0.986272  0.271345  0.963298  1
