# generated using pymatgen
data_Sr
_symmetry_space_group_name_H-M   P1
_cell_length_a   5.77107396
_cell_length_b   5.89982037
_cell_length_c   8.15330790
_cell_angle_alpha   103.37547206
_cell_angle_beta   109.18576973
_cell_angle_gamma   95.75117619
_symmetry_Int_Tables_number   1
_chemical_formula_structural   Sr
_chemical_formula_sum   Sr11
_cell_volume   250.34001675
_cell_formula_units_Z   11
loop_
 _symmetry_equiv_pos_site_id
 _symmetry_equiv_pos_as_xyz
  1  'x, y, z'
loop_
 _atom_site_type_symbol
 _atom_site_label
 _atom_site_symmetry_multiplicity
 _atom_site_fract_x
 _atom_site_fract_y
 _atom_site_fract_z
 _atom_site_occupancy
  Sr  Sr0  1  0.078802  0.767190  0.999302  1
  Sr  Sr1  1  0.118824  0.871531  0.380766  1
  Sr  Sr2  1  0.138884  0.192640  0.756101  1
  Sr  Sr3  1  0.153728  0.494207  0.518886  1
  Sr  Sr4  1  0.153897  0.248058  0.136189  1
  Sr  Sr5  1  0.489950  0.843658  0.888105  1
  Sr  Sr6  1  0.535369  0.652210  0.277543  1
  Sr  Sr7  1  0.586706  0.155085  0.606798  1
  Sr  Sr8  1  0.692457  0.379639  0.006753  1
  Sr  Sr9  1  0.700247  0.137009  0.287410  1
  Sr  Sr10  1  0.763409  0.656651  0.640880  1
