# generated using pymatgen
data_Sr
_symmetry_space_group_name_H-M   P-1
_cell_length_a   3.72955750
_cell_length_b   4.62005948
_cell_length_c   5.93974624
_cell_angle_alpha   68.31737653
_cell_angle_beta   77.76776002
_cell_angle_gamma   83.94132052
_symmetry_Int_Tables_number   2
_chemical_formula_structural   Sr
_chemical_formula_sum   Sr3
_cell_volume   92.90380277
_cell_formula_units_Z   3
loop_
 _symmetry_equiv_pos_site_id
 _symmetry_equiv_pos_as_xyz
  1  'x, y, z'
  2  '-x, -y, -z'
loop_
 _atom_site_type_symbol
 _atom_site_label
 _atom_site_symmetry_multiplicity
 _atom_site_fract_x
 _atom_site_fract_y
 _atom_site_fract_z
 _atom_site_occupancy
  Sr  Sr0  2  0.099927  0.656433  0.147210  1
  Sr  Sr1  1  0.500000  0.000000  0.500000  1
