# generated using pymatgen
data_Sr
_symmetry_space_group_name_H-M   C2/m
_cell_length_a   6.53790449
_cell_length_b   3.29721470
_cell_length_c   10.40834079
_cell_angle_alpha   90.00000000
_cell_angle_beta   107.11866093
_cell_angle_gamma   90.00000000
_symmetry_Int_Tables_number   12
_chemical_formula_structural   Sr
_chemical_formula_sum   Sr6
_cell_volume   214.43102181
_cell_formula_units_Z   6
loop_
 _symmetry_equiv_pos_site_id
 _symmetry_equiv_pos_as_xyz
  1  'x, y, z'
  2  '-x, -y, -z'
  3  '-x, y, -z'
  4  'x, -y, z'
  5  'x+1/2, y+1/2, z'
  6  '-x+1/2, -y+1/2, -z'
  7  '-x+1/2, y+1/2, -z'
  8  'x+1/2, -y+1/2, z'
loop_
 _atom_site_type_symbol
 _atom_site_label
 _atom_site_symmetry_multiplicity
 _atom_site_fract_x
 _atom_site_fract_y
 _atom_site_fract_z
 _atom_site_occupancy
  Sr  Sr0  4  0.113818  0.500000  0.213370  1
  Sr  Sr1  2  0.000000  0.000000  0.500000  1
