# generated using pymatgen
data_Sr
_symmetry_space_group_name_H-M   P1
_cell_length_a   5.97035476
_cell_length_b   6.39858886
_cell_length_c   6.42599242
_cell_angle_alpha   87.69973665
_cell_angle_beta   89.44099857
_cell_angle_gamma   85.50601233
_symmetry_Int_Tables_number   1
_chemical_formula_structural   Sr
_chemical_formula_sum   Sr10
_cell_volume   244.52745449
_cell_formula_units_Z   10
loop_
 _symmetry_equiv_pos_site_id
 _symmetry_equiv_pos_as_xyz
  1  'x, y, z'
loop_
 _atom_site_type_symbol
 _atom_site_label
 _atom_site_symmetry_multiplicity
 _atom_site_fract_x
 _atom_site_fract_y
 _atom_site_fract_z
 _atom_site_occupancy
  Sr  Sr0  1  0.067104  0.138675  0.191699  1
  Sr  Sr1  1  0.148044  0.293273  0.768188  1
  Sr  Sr2  1  0.304109  0.625246  0.273039  1
  Sr  Sr3  1  0.389855  0.792752  0.707982  1
  Sr  Sr4  1  0.482527  0.179074  0.444244  1
  Sr  Sr5  1  0.595391  0.975441  0.075810  1
  Sr  Sr6  1  0.632417  0.399355  0.891984  1
  Sr  Sr7  1  0.811001  0.531014  0.398266  1
  Sr  Sr8  1  0.887662  0.945740  0.568562  1
  Sr  Sr9  1  0.978753  0.695888  0.940550  1
