# generated using pymatgen
data_Sr
_symmetry_space_group_name_H-M   Cm
_cell_length_a   6.01247528
_cell_length_b   10.79906139
_cell_length_c   5.96440791
_cell_angle_alpha   90.00000000
_cell_angle_beta   93.61488233
_cell_angle_gamma   90.00000000
_symmetry_Int_Tables_number   8
_chemical_formula_structural   Sr
_chemical_formula_sum   Sr16
_cell_volume   386.49307069
_cell_formula_units_Z   16
loop_
 _symmetry_equiv_pos_site_id
 _symmetry_equiv_pos_as_xyz
  1  'x, y, z'
  2  'x, -y, z'
  3  'x+1/2, y+1/2, z'
  4  'x+1/2, -y+1/2, z'
loop_
 _atom_site_type_symbol
 _atom_site_label
 _atom_site_symmetry_multiplicity
 _atom_site_fract_x
 _atom_site_fract_y
 _atom_site_fract_z
 _atom_site_occupancy
  Sr  Sr0  4  0.317821  0.291351  0.381061  1
  Sr  Sr1  4  0.344510  0.205378  0.881441  1
  Sr  Sr2  2  0.021380  0.500000  0.239629  1
  Sr  Sr3  2  0.029264  0.000000  0.063457  1
  Sr  Sr4  2  0.167646  0.000000  0.527607  1
  Sr  Sr5  2  0.184658  0.500000  0.731686  1
