# generated using pymatgen
data_Sr
_symmetry_space_group_name_H-M   P1
_cell_length_a   5.74662052
_cell_length_b   8.17734814
_cell_length_c   8.24537894
_cell_angle_alpha   64.73549849
_cell_angle_beta   73.79714342
_cell_angle_gamma   71.13604402
_symmetry_Int_Tables_number   1
_chemical_formula_structural   Sr
_chemical_formula_sum   Sr15
_cell_volume   327.05008006
_cell_formula_units_Z   15
loop_
 _symmetry_equiv_pos_site_id
 _symmetry_equiv_pos_as_xyz
  1  'x, y, z'
loop_
 _atom_site_type_symbol
 _atom_site_label
 _atom_site_symmetry_multiplicity
 _atom_site_fract_x
 _atom_site_fract_y
 _atom_site_fract_z
 _atom_site_occupancy
  Sr  Sr0  1  0.043702  0.988122  0.079922  1
  Sr  Sr1  1  0.131115  0.683912  0.455640  1
  Sr  Sr2  1  0.235826  0.308350  0.905536  1
  Sr  Sr3  1  0.236258  0.210447  0.306506  1
  Sr  Sr4  1  0.268618  0.619085  0.119348  1
  Sr  Sr5  1  0.418796  0.305854  0.567884  1
  Sr  Sr6  1  0.459857  0.838244  0.736504  1
  Sr  Sr7  1  0.517296  0.850394  0.350756  1
  Sr  Sr8  1  0.619040  0.954845  0.975751  1
  Sr  Sr9  1  0.663418  0.336556  0.998403  1
  Sr  Sr10  1  0.733206  0.501479  0.618019  1
  Sr  Sr11  1  0.774867  0.525803  0.224562  1
  Sr  Sr12  1  0.802245  0.052477  0.421461  1
  Sr  Sr13  1  0.990335  0.121246  0.683706  1
  Sr  Sr14  1  0.990780  0.686254  0.815326  1
