# generated using pymatgen
data_Sr
_symmetry_space_group_name_H-M   P1
_cell_length_a   6.00034325
_cell_length_b   6.20379060
_cell_length_c   6.72726453
_cell_angle_alpha   92.50359752
_cell_angle_beta   95.20948964
_cell_angle_gamma   94.27065537
_symmetry_Int_Tables_number   1
_chemical_formula_structural   Sr
_chemical_formula_sum   Sr10
_cell_volume   248.37369693
_cell_formula_units_Z   10
loop_
 _symmetry_equiv_pos_site_id
 _symmetry_equiv_pos_as_xyz
  1  'x, y, z'
loop_
 _atom_site_type_symbol
 _atom_site_label
 _atom_site_symmetry_multiplicity
 _atom_site_fract_x
 _atom_site_fract_y
 _atom_site_fract_z
 _atom_site_occupancy
  Sr  Sr0  1  0.082446  0.262445  0.107748  1
  Sr  Sr1  1  0.217264  0.721241  0.919197  1
  Sr  Sr2  1  0.337955  0.225512  0.709921  1
  Sr  Sr3  1  0.401214  0.886003  0.440042  1
  Sr  Sr4  1  0.519895  0.460771  0.343076  1
  Sr  Sr5  1  0.571625  0.120818  0.068636  1
  Sr  Sr6  1  0.688546  0.599854  0.864716  1
  Sr  Sr7  1  0.856036  0.060721  0.690410  1
  Sr  Sr8  1  0.908840  0.854829  0.285017  1
  Sr  Sr9  1  0.992555  0.471412  0.494841  1
