# generated using pymatgen
data_Sr
_symmetry_space_group_name_H-M   Cc
_cell_length_a   7.61732345
_cell_length_b   8.86988412
_cell_length_c   5.78516389
_cell_angle_alpha   90.00000000
_cell_angle_beta   129.19994080
_cell_angle_gamma   90.00000000
_symmetry_Int_Tables_number   9
_chemical_formula_structural   Sr
_chemical_formula_sum   Sr12
_cell_volume   302.90536776
_cell_formula_units_Z   12
loop_
 _symmetry_equiv_pos_site_id
 _symmetry_equiv_pos_as_xyz
  1  'x, y, z'
  2  'x, -y, z+1/2'
  3  'x+1/2, y+1/2, z'
  4  'x+1/2, -y+1/2, z+1/2'
loop_
 _atom_site_type_symbol
 _atom_site_label
 _atom_site_symmetry_multiplicity
 _atom_site_fract_x
 _atom_site_fract_y
 _atom_site_fract_z
 _atom_site_occupancy
  Sr  Sr0  4  0.313757  0.195949  0.476240  1
  Sr  Sr1  4  0.435551  0.451232  0.266283  1
  Sr  Sr2  4  0.466744  0.139514  0.058629  1
