# generated using pymatgen
data_Sr
_symmetry_space_group_name_H-M   P1
_cell_length_a   6.14408278
_cell_length_b   6.23066238
_cell_length_c   6.31747372
_cell_angle_alpha   92.67747878
_cell_angle_beta   98.70148569
_cell_angle_gamma   90.27481213
_symmetry_Int_Tables_number   1
_chemical_formula_structural   Sr
_chemical_formula_sum   Sr11
_cell_volume   238.78182392
_cell_formula_units_Z   11
loop_
 _symmetry_equiv_pos_site_id
 _symmetry_equiv_pos_as_xyz
  1  'x, y, z'
loop_
 _atom_site_type_symbol
 _atom_site_label
 _atom_site_symmetry_multiplicity
 _atom_site_fract_x
 _atom_site_fract_y
 _atom_site_fract_z
 _atom_site_occupancy
  Sr  Sr0  1  0.126763  0.973626  0.346000  1
  Sr  Sr1  1  0.128044  0.319088  0.795517  1
  Sr  Sr2  1  0.256755  0.358564  0.277705  1
  Sr  Sr3  1  0.352936  0.867247  0.780702  1
  Sr  Sr4  1  0.461232  0.723530  0.259771  1
  Sr  Sr5  1  0.534351  0.461111  0.723315  1
  Sr  Sr6  1  0.610085  0.111671  0.105604  1
  Sr  Sr7  1  0.701803  0.100859  0.538865  1
  Sr  Sr8  1  0.853333  0.489995  0.104638  1
  Sr  Sr9  1  0.920743  0.611680  0.532998  1
  Sr  Sr10  1  0.933250  0.884471  0.936505  1
