# generated using pymatgen
data_Sr
_symmetry_space_group_name_H-M   P-1
_cell_length_a   5.71791288
_cell_length_b   6.88110761
_cell_length_c   10.74667863
_cell_angle_alpha   79.02687271
_cell_angle_beta   79.42592827
_cell_angle_gamma   75.63834288
_symmetry_Int_Tables_number   2
_chemical_formula_structural   Sr
_chemical_formula_sum   Sr20
_cell_volume   397.98033779
_cell_formula_units_Z   20
loop_
 _symmetry_equiv_pos_site_id
 _symmetry_equiv_pos_as_xyz
  1  'x, y, z'
  2  '-x, -y, -z'
loop_
 _atom_site_type_symbol
 _atom_site_label
 _atom_site_symmetry_multiplicity
 _atom_site_fract_x
 _atom_site_fract_y
 _atom_site_fract_z
 _atom_site_occupancy
  Sr  Sr0  2  0.078803  0.206004  0.237851  1
  Sr  Sr1  2  0.119714  0.567058  0.083202  1
  Sr  Sr2  2  0.149759  0.737386  0.292690  1
  Sr  Sr3  2  0.205408  0.998779  0.039262  1
  Sr  Sr4  2  0.206513  0.361093  0.434943  1
  Sr  Sr5  2  0.248427  0.929868  0.477533  1
  Sr  Sr6  2  0.331871  0.107606  0.688225  1
  Sr  Sr7  2  0.333162  0.552716  0.632911  1
  Sr  Sr8  2  0.388128  0.309516  0.877016  1
  Sr  Sr9  2  0.417969  0.752072  0.842844  1
