# generated using pymatgen
data_Sr
_symmetry_space_group_name_H-M   Pc
_cell_length_a   5.53425228
_cell_length_b   6.60074355
_cell_length_c   11.11272868
_cell_angle_alpha   90.00000000
_cell_angle_beta   117.96987378
_cell_angle_gamma   90.00000000
_symmetry_Int_Tables_number   7
_chemical_formula_structural   Sr
_chemical_formula_sum   Sr16
_cell_volume   358.53271618
_cell_formula_units_Z   16
loop_
 _symmetry_equiv_pos_site_id
 _symmetry_equiv_pos_as_xyz
  1  'x, y, z'
  2  'x, -y, z+1/2'
loop_
 _atom_site_type_symbol
 _atom_site_label
 _atom_site_symmetry_multiplicity
 _atom_site_fract_x
 _atom_site_fract_y
 _atom_site_fract_z
 _atom_site_occupancy
  Sr  Sr0  2  0.187097  0.126118  0.861981  1
  Sr  Sr1  2  0.208390  0.376977  0.400793  1
  Sr  Sr2  2  0.296430  0.370869  0.146849  1
  Sr  Sr3  2  0.313608  0.108879  0.643520  1
  Sr  Sr4  2  0.700384  0.373019  0.853629  1
  Sr  Sr5  2  0.729186  0.132097  0.380958  1
  Sr  Sr6  2  0.780336  0.131093  0.115156  1
  Sr  Sr7  2  0.792207  0.386990  0.609194  1
