# generated using pymatgen
data_Sr
_symmetry_space_group_name_H-M   P1
_cell_length_a   5.50930715
_cell_length_b   5.52449091
_cell_length_c   13.62436909
_cell_angle_alpha   97.56234728
_cell_angle_beta   96.37949749
_cell_angle_gamma   100.07914945
_symmetry_Int_Tables_number   1
_chemical_formula_structural   Sr
_chemical_formula_sum   Sr19
_cell_volume   400.88118785
_cell_formula_units_Z   19
loop_
 _symmetry_equiv_pos_site_id
 _symmetry_equiv_pos_as_xyz
  1  'x, y, z'
loop_
 _atom_site_type_symbol
 _atom_site_label
 _atom_site_symmetry_multiplicity
 _atom_site_fract_x
 _atom_site_fract_y
 _atom_site_fract_z
 _atom_site_occupancy
  Sr  Sr0  1  0.017037  0.804183  0.209790  1
  Sr  Sr1  1  0.028154  0.310931  0.256455  1
  Sr  Sr2  1  0.092264  0.837202  0.737774  1
  Sr  Sr3  1  0.109380  0.835119  0.419736  1
  Sr  Sr4  1  0.271444  0.334464  0.457558  1
  Sr  Sr5  1  0.300082  0.816783  0.971150  1
  Sr  Sr6  1  0.306513  0.260018  0.886927  1
  Sr  Sr7  1  0.325028  0.438847  0.103208  1
  Sr  Sr8  1  0.425281  0.427768  0.686926  1
  Sr  Sr9  1  0.458311  0.891201  0.603285  1
  Sr  Sr10  1  0.502857  0.009690  0.178336  1
  Sr  Sr11  1  0.573549  0.539898  0.310704  1
  Sr  Sr12  1  0.646542  0.885831  0.824179  1
  Sr  Sr13  1  0.664332  0.060330  0.400806  1
  Sr  Sr14  1  0.773799  0.475948  0.023352  1
  Sr  Sr15  1  0.823683  0.593226  0.546335  1
  Sr  Sr16  1  0.851968  0.409231  0.823898  1
  Sr  Sr17  1  0.872237  0.000706  0.022914  1
  Sr  Sr18  1  0.941841  0.183508  0.632698  1
