# generated using pymatgen
data_Sr
_symmetry_space_group_name_H-M   P1
_cell_length_a   5.66401782
_cell_length_b   5.77526715
_cell_length_c   10.33594910
_cell_angle_alpha   87.33610062
_cell_angle_beta   87.02417851
_cell_angle_gamma   88.54465527
_symmetry_Int_Tables_number   1
_chemical_formula_structural   Sr
_chemical_formula_sum   Sr17
_cell_volume   337.19113050
_cell_formula_units_Z   17
loop_
 _symmetry_equiv_pos_site_id
 _symmetry_equiv_pos_as_xyz
  1  'x, y, z'
loop_
 _atom_site_type_symbol
 _atom_site_label
 _atom_site_symmetry_multiplicity
 _atom_site_fract_x
 _atom_site_fract_y
 _atom_site_fract_z
 _atom_site_occupancy
  Sr  Sr0  1  0.056419  0.313755  0.861948  1
  Sr  Sr1  1  0.161372  0.615101  0.189747  1
  Sr  Sr2  1  0.206045  0.063128  0.082247  1
  Sr  Sr3  1  0.277966  0.449244  0.618437  1
  Sr  Sr4  1  0.335424  0.774747  0.806994  1
  Sr  Sr5  1  0.422902  0.231857  0.328347  1
  Sr  Sr6  1  0.458772  0.502630  0.001371  1
  Sr  Sr7  1  0.469583  0.680796  0.393935  1
  Sr  Sr8  1  0.515507  0.029558  0.564025  1
  Sr  Sr9  1  0.592120  0.136995  0.859999  1
  Sr  Sr10  1  0.643088  0.895223  0.163590  1
  Sr  Sr11  1  0.728798  0.530900  0.694447  1
  Sr  Sr12  1  0.789401  0.352551  0.156735  1
  Sr  Sr13  1  0.892196  0.744937  0.943597  1
  Sr  Sr14  1  0.903038  0.411879  0.454930  1
  Sr  Sr15  1  0.958366  0.969239  0.663654  1
  Sr  Sr16  1  0.991179  0.932921  0.376886  1
