# generated using pymatgen
data_Sr
_symmetry_space_group_name_H-M   P1
_cell_length_a   5.74082070
_cell_length_b   8.12658825
_cell_length_c   8.16506184
_cell_angle_alpha   116.87027894
_cell_angle_beta   100.48714689
_cell_angle_gamma   100.68384403
_symmetry_Int_Tables_number   1
_chemical_formula_structural   Sr
_chemical_formula_sum   Sr15
_cell_volume   318.18694243
_cell_formula_units_Z   15
loop_
 _symmetry_equiv_pos_site_id
 _symmetry_equiv_pos_as_xyz
  1  'x, y, z'
loop_
 _atom_site_type_symbol
 _atom_site_label
 _atom_site_symmetry_multiplicity
 _atom_site_fract_x
 _atom_site_fract_y
 _atom_site_fract_z
 _atom_site_occupancy
  Sr  Sr0  1  0.084448  0.980656  0.309087  1
  Sr  Sr1  1  0.095934  0.880914  0.915343  1
  Sr  Sr2  1  0.102152  0.491620  0.818610  1
  Sr  Sr3  1  0.121556  0.388460  0.424816  1
  Sr  Sr4  1  0.343372  0.309302  0.121915  1
  Sr  Sr5  1  0.362846  0.199704  0.744688  1
  Sr  Sr6  1  0.368233  0.816318  0.625144  1
  Sr  Sr7  1  0.369230  0.702147  0.241094  1
  Sr  Sr8  1  0.598295  0.013140  0.178988  1
  Sr  Sr9  1  0.599854  0.677635  0.856987  1
  Sr  Sr10  1  0.601155  0.327919  0.528543  1
  Sr  Sr11  1  0.816618  0.555154  0.108609  1
  Sr  Sr12  1  0.818033  0.666883  0.492258  1
  Sr  Sr13  1  0.821951  0.169137  0.977473  1
  Sr  Sr14  1  0.830717  0.053227  0.597627  1
