# generated using pymatgen
data_Sr
_symmetry_space_group_name_H-M   P-1
_cell_length_a   7.75439614
_cell_length_b   7.86301687
_cell_length_c   8.62608533
_cell_angle_alpha   99.56532167
_cell_angle_beta   95.02919689
_cell_angle_gamma   115.06318982
_symmetry_Int_Tables_number   2
_chemical_formula_structural   Sr
_chemical_formula_sum   Sr22
_cell_volume   462.39693069
_cell_formula_units_Z   22
loop_
 _symmetry_equiv_pos_site_id
 _symmetry_equiv_pos_as_xyz
  1  'x, y, z'
  2  '-x, -y, -z'
loop_
 _atom_site_type_symbol
 _atom_site_label
 _atom_site_symmetry_multiplicity
 _atom_site_fract_x
 _atom_site_fract_y
 _atom_site_fract_z
 _atom_site_occupancy
  Sr  Sr0  2  0.037411  0.722404  0.264163  1
  Sr  Sr1  2  0.054773  0.047899  0.168040  1
  Sr  Sr2  2  0.104270  0.659462  0.627421  1
  Sr  Sr3  2  0.180563  0.029796  0.570204  1
  Sr  Sr4  2  0.202007  0.773846  0.961999  1
  Sr  Sr5  2  0.217792  0.457967  0.084197  1
  Sr  Sr6  2  0.281466  0.380332  0.420439  1
  Sr  Sr7  2  0.381132  0.193064  0.920568  1
  Sr  Sr8  2  0.382163  0.502969  0.764705  1
  Sr  Sr9  2  0.415322  0.773212  0.403420  1
  Sr  Sr10  2  0.462141  0.095243  0.246318  1
