# generated using pymatgen
data_Sr
_symmetry_space_group_name_H-M   P1
_cell_length_a   5.51925777
_cell_length_b   6.35691622
_cell_length_c   6.59752562
_cell_angle_alpha   83.62806634
_cell_angle_beta   67.54577865
_cell_angle_gamma   73.80018500
_symmetry_Int_Tables_number   1
_chemical_formula_structural   Sr
_chemical_formula_sum   Sr9
_cell_volume   205.43112712
_cell_formula_units_Z   9
loop_
 _symmetry_equiv_pos_site_id
 _symmetry_equiv_pos_as_xyz
  1  'x, y, z'
loop_
 _atom_site_type_symbol
 _atom_site_label
 _atom_site_symmetry_multiplicity
 _atom_site_fract_x
 _atom_site_fract_y
 _atom_site_fract_z
 _atom_site_occupancy
  Sr  Sr0  1  0.039772  0.629529  0.718230  1
  Sr  Sr1  1  0.085633  0.333911  0.119310  1
  Sr  Sr2  1  0.113829  0.882091  0.325203  1
  Sr  Sr3  1  0.373154  0.133668  0.688656  1
  Sr  Sr4  1  0.441039  0.667462  0.893613  1
  Sr  Sr5  1  0.532321  0.382177  0.266959  1
  Sr  Sr6  1  0.650064  0.755166  0.398425  1
  Sr  Sr7  1  0.758196  0.989810  0.005073  1
  Sr  Sr8  1  0.884046  0.267626  0.618070  1
