# generated using pymatgen
data_Sr
_symmetry_space_group_name_H-M   P1
_cell_length_a   5.59886342
_cell_length_b   5.68128302
_cell_length_c   5.95807726
_cell_angle_alpha   116.49147998
_cell_angle_beta   117.28891338
_cell_angle_gamma   90.63458703
_symmetry_Int_Tables_number   1
_chemical_formula_structural   Sr
_chemical_formula_sum   Sr4
_cell_volume   145.09915743
_cell_formula_units_Z   4
loop_
 _symmetry_equiv_pos_site_id
 _symmetry_equiv_pos_as_xyz
  1  'x, y, z'
loop_
 _atom_site_type_symbol
 _atom_site_label
 _atom_site_symmetry_multiplicity
 _atom_site_fract_x
 _atom_site_fract_y
 _atom_site_fract_z
 _atom_site_occupancy
  Sr  Sr0  1  0.068953  0.468410  0.200424  1
  Sr  Sr1  1  0.334598  0.186739  0.689140  1
  Sr  Sr2  1  0.622569  0.940195  0.244465  1
  Sr  Sr3  1  0.920308  0.786911  0.813410  1
