# generated using pymatgen
data_Sr
_symmetry_space_group_name_H-M   C2/m
_cell_length_a   3.61960982
_cell_length_b   12.24197918
_cell_length_c   8.78989157
_cell_angle_alpha   90.00000000
_cell_angle_beta   95.09591664
_cell_angle_gamma   90.00000000
_symmetry_Int_Tables_number   12
_chemical_formula_structural   Sr
_chemical_formula_sum   Sr18
_cell_volume   387.95103769
_cell_formula_units_Z   18
loop_
 _symmetry_equiv_pos_site_id
 _symmetry_equiv_pos_as_xyz
  1  'x, y, z'
  2  '-x, -y, -z'
  3  '-x, y, -z'
  4  'x, -y, z'
  5  'x+1/2, y+1/2, z'
  6  '-x+1/2, -y+1/2, -z'
  7  '-x+1/2, y+1/2, -z'
  8  'x+1/2, -y+1/2, z'
loop_
 _atom_site_type_symbol
 _atom_site_label
 _atom_site_symmetry_multiplicity
 _atom_site_fract_x
 _atom_site_fract_y
 _atom_site_fract_z
 _atom_site_occupancy
  Sr  Sr0  8  0.110409  0.158117  0.844221  1
  Sr  Sr1  4  0.000000  0.162917  0.500000  1
  Sr  Sr2  4  0.104829  0.500000  0.676994  1
  Sr  Sr3  2  0.000000  0.500000  0.000000  1
