# generated using pymatgen
data_Sr
_symmetry_space_group_name_H-M   P1
_cell_length_a   5.73265586
_cell_length_b   5.94717410
_cell_length_c   6.12492625
_cell_angle_alpha   89.85127774
_cell_angle_beta   70.35328284
_cell_angle_gamma   89.10367214
_symmetry_Int_Tables_number   1
_chemical_formula_structural   Sr
_chemical_formula_sum   Sr9
_cell_volume   196.63627530
_cell_formula_units_Z   9
loop_
 _symmetry_equiv_pos_site_id
 _symmetry_equiv_pos_as_xyz
  1  'x, y, z'
loop_
 _atom_site_type_symbol
 _atom_site_label
 _atom_site_symmetry_multiplicity
 _atom_site_fract_x
 _atom_site_fract_y
 _atom_site_fract_z
 _atom_site_occupancy
  Sr  Sr0  1  0.056713  0.952257  0.933280  1
  Sr  Sr1  1  0.108510  0.583397  0.546989  1
  Sr  Sr2  1  0.201581  0.411915  0.969797  1
  Sr  Sr3  1  0.458388  0.190118  0.400106  1
  Sr  Sr4  1  0.521145  0.808333  0.623719  1
  Sr  Sr5  1  0.537186  0.797426  0.046050  1
  Sr  Sr6  1  0.692842  0.297392  0.853258  1
  Sr  Sr7  1  0.775619  0.525449  0.302041  1
  Sr  Sr8  1  0.997948  0.047978  0.399727  1
