# generated using pymatgen
data_Sr
_symmetry_space_group_name_H-M   P1
_cell_length_a   5.74620664
_cell_length_b   8.19123064
_cell_length_c   11.22207581
_cell_angle_alpha   104.58923538
_cell_angle_beta   99.53329085
_cell_angle_gamma   107.05740291
_symmetry_Int_Tables_number   1
_chemical_formula_structural   Sr
_chemical_formula_sum   Sr22
_cell_volume   472.03031845
_cell_formula_units_Z   22
loop_
 _symmetry_equiv_pos_site_id
 _symmetry_equiv_pos_as_xyz
  1  'x, y, z'
loop_
 _atom_site_type_symbol
 _atom_site_label
 _atom_site_symmetry_multiplicity
 _atom_site_fract_x
 _atom_site_fract_y
 _atom_site_fract_z
 _atom_site_occupancy
  Sr  Sr0  1  0.008115  0.435340  0.884298  1
  Sr  Sr1  1  0.091733  0.609227  0.483328  1
  Sr  Sr2  1  0.112545  0.021778  0.784541  1
  Sr  Sr3  1  0.132186  0.234913  0.039826  1
  Sr  Sr4  1  0.145811  0.588799  0.213779  1
  Sr  Sr5  1  0.178324  0.984219  0.518419  1
  Sr  Sr6  1  0.379487  0.385639  0.756147  1
  Sr  Sr7  1  0.405335  0.767116  0.052757  1
  Sr  Sr8  1  0.412978  0.114917  0.225458  1
  Sr  Sr9  1  0.439739  0.340697  0.483811  1
  Sr  Sr10  1  0.451804  0.751466  0.780454  1
  Sr  Sr11  1  0.541650  0.920362  0.380475  1
  Sr  Sr12  1  0.598503  0.109508  0.989104  1
  Sr  Sr13  1  0.604145  0.500105  0.282592  1
  Sr  Sr14  1  0.627053  0.738274  0.550045  1
  Sr  Sr15  1  0.637681  0.481576  0.018773  1
  Sr  Sr16  1  0.642830  0.091525  0.719317  1
  Sr  Sr17  1  0.910570  0.256575  0.544674  1
  Sr  Sr18  1  0.912207  0.869657  0.242787  1
  Sr  Sr19  1  0.919953  0.627366  0.718620  1
  Sr  Sr20  1  0.935002  0.840311  0.975632  1
  Sr  Sr21  1  0.946614  0.243080  0.276185  1
