# generated using pymatgen
data_Sr
_symmetry_space_group_name_H-M   P1
_cell_length_a   5.20093557
_cell_length_b   5.21826368
_cell_length_c   10.45531678
_cell_angle_alpha   98.91579099
_cell_angle_beta   99.75824367
_cell_angle_gamma   99.88557422
_symmetry_Int_Tables_number   1
_chemical_formula_structural   Sr
_chemical_formula_sum   Sr14
_cell_volume   270.50113586
_cell_formula_units_Z   14
loop_
 _symmetry_equiv_pos_site_id
 _symmetry_equiv_pos_as_xyz
  1  'x, y, z'
loop_
 _atom_site_type_symbol
 _atom_site_label
 _atom_site_symmetry_multiplicity
 _atom_site_fract_x
 _atom_site_fract_y
 _atom_site_fract_z
 _atom_site_occupancy
  Sr  Sr0  1  0.094426  0.679870  0.795243  1
  Sr  Sr1  1  0.147994  0.692382  0.313340  1
  Sr  Sr2  1  0.235439  0.269707  0.444523  1
  Sr  Sr3  1  0.290099  0.254773  0.952181  1
  Sr  Sr4  1  0.395162  0.856067  0.080983  1
  Sr  Sr5  1  0.413818  0.827230  0.587599  1
  Sr  Sr6  1  0.540916  0.428174  0.725833  1
  Sr  Sr7  1  0.566304  0.412531  0.239812  1
  Sr  Sr8  1  0.700492  0.989288  0.376606  1
  Sr  Sr9  1  0.732858  0.998903  0.869208  1
  Sr  Sr10  1  0.834448  0.553260  0.012448  1
  Sr  Sr11  1  0.840285  0.579733  0.517826  1
  Sr  Sr12  1  0.960973  0.132587  0.156798  1
  Sr  Sr13  1  0.988317  0.131069  0.657744  1
