# generated using pymatgen
data_Sr
_symmetry_space_group_name_H-M   P1
_cell_length_a   3.48993511
_cell_length_b   4.59408539
_cell_length_c   8.99218401
_cell_angle_alpha   76.48222284
_cell_angle_beta   88.99385074
_cell_angle_gamma   89.89711985
_symmetry_Int_Tables_number   1
_chemical_formula_structural   Sr
_chemical_formula_sum   Sr5
_cell_volume   140.15627713
_cell_formula_units_Z   5
loop_
 _symmetry_equiv_pos_site_id
 _symmetry_equiv_pos_as_xyz
  1  'x, y, z'
loop_
 _atom_site_type_symbol
 _atom_site_label
 _atom_site_symmetry_multiplicity
 _atom_site_fract_x
 _atom_site_fract_y
 _atom_site_fract_z
 _atom_site_occupancy
  Sr  Sr0  1  0.001587  0.313307  0.221884  1
  Sr  Sr1  1  0.480512  0.149173  0.594433  1
  Sr  Sr2  1  0.506688  0.872001  0.079225  1
  Sr  Sr3  1  0.525803  0.461546  0.846640  1
  Sr  Sr4  1  0.994856  0.707657  0.454633  1
