# generated using pymatgen
data_Sr
_symmetry_space_group_name_H-M   P1
_cell_length_a   4.56044183
_cell_length_b   7.14838819
_cell_length_c   7.98221468
_cell_angle_alpha   103.98917296
_cell_angle_beta   103.14632020
_cell_angle_gamma   90.48394684
_symmetry_Int_Tables_number   1
_chemical_formula_structural   Sr
_chemical_formula_sum   Sr11
_cell_volume   245.32894443
_cell_formula_units_Z   11
loop_
 _symmetry_equiv_pos_site_id
 _symmetry_equiv_pos_as_xyz
  1  'x, y, z'
loop_
 _atom_site_type_symbol
 _atom_site_label
 _atom_site_symmetry_multiplicity
 _atom_site_fract_x
 _atom_site_fract_y
 _atom_site_fract_z
 _atom_site_occupancy
  Sr  Sr0  1  0.094519  0.886945  0.591895  1
  Sr  Sr1  1  0.103471  0.310418  0.594910  1
  Sr  Sr2  1  0.268534  0.202145  0.971163  1
  Sr  Sr3  1  0.270770  0.692830  0.960900  1
  Sr  Sr4  1  0.280648  0.554837  0.411083  1
  Sr  Sr5  1  0.562334  0.816714  0.311004  1
  Sr  Sr6  1  0.588941  0.249555  0.337192  1
  Sr  Sr7  1  0.649487  0.135240  0.717566  1
  Sr  Sr8  1  0.688778  0.635251  0.747171  1
  Sr  Sr9  1  0.821824  0.488608  0.117714  1
  Sr  Sr10  1  0.933440  0.986496  0.134654  1
