# generated using pymatgen
data_Sr
_symmetry_space_group_name_H-M   C2/c
_cell_length_a   9.44368368
_cell_length_b   9.04577802
_cell_length_c   6.05731993
_cell_angle_alpha   90.00000000
_cell_angle_beta   92.12791820
_cell_angle_gamma   90.00000000
_symmetry_Int_Tables_number   15
_chemical_formula_structural   Sr
_chemical_formula_sum   Sr20
_cell_volume   517.09255691
_cell_formula_units_Z   20
loop_
 _symmetry_equiv_pos_site_id
 _symmetry_equiv_pos_as_xyz
  1  'x, y, z'
  2  '-x, -y, -z'
  3  '-x, y, -z+1/2'
  4  'x, -y, z+1/2'
  5  'x+1/2, y+1/2, z'
  6  '-x+1/2, -y+1/2, -z'
  7  '-x+1/2, y+1/2, -z+1/2'
  8  'x+1/2, -y+1/2, z+1/2'
loop_
 _atom_site_type_symbol
 _atom_site_label
 _atom_site_symmetry_multiplicity
 _atom_site_fract_x
 _atom_site_fract_y
 _atom_site_fract_z
 _atom_site_occupancy
  Sr  Sr0  8  0.101907  0.311654  0.434394  1
  Sr  Sr1  8  0.183555  0.387910  0.886732  1
  Sr  Sr2  4  0.000000  0.044990  0.750000  1
