# generated using pymatgen
data_Sr
_symmetry_space_group_name_H-M   P-1
_cell_length_a   4.99586610
_cell_length_b   5.98359759
_cell_length_c   6.10535792
_cell_angle_alpha   98.25363910
_cell_angle_beta   93.27811229
_cell_angle_gamma   111.82033122
_symmetry_Int_Tables_number   2
_chemical_formula_structural   Sr
_chemical_formula_sum   Sr7
_cell_volume   166.45988549
_cell_formula_units_Z   7
loop_
 _symmetry_equiv_pos_site_id
 _symmetry_equiv_pos_as_xyz
  1  'x, y, z'
  2  '-x, -y, -z'
loop_
 _atom_site_type_symbol
 _atom_site_label
 _atom_site_symmetry_multiplicity
 _atom_site_fract_x
 _atom_site_fract_y
 _atom_site_fract_z
 _atom_site_occupancy
  Sr  Sr0  2  0.180630  0.846559  0.555719  1
  Sr  Sr1  2  0.279740  0.058290  0.040092  1
  Sr  Sr2  2  0.429440  0.471223  0.712098  1
  Sr  Sr3  1  0.000000  0.500000  0.000000  1
