# generated using pymatgen
data_Sr
_symmetry_space_group_name_H-M   P1
_cell_length_a   6.06578962
_cell_length_b   6.14235145
_cell_length_c   8.06196843
_cell_angle_alpha   99.27705319
_cell_angle_beta   98.71203171
_cell_angle_gamma   93.40614826
_symmetry_Int_Tables_number   1
_chemical_formula_structural   Sr
_chemical_formula_sum   Sr12
_cell_volume   291.94142401
_cell_formula_units_Z   12
loop_
 _symmetry_equiv_pos_site_id
 _symmetry_equiv_pos_as_xyz
  1  'x, y, z'
loop_
 _atom_site_type_symbol
 _atom_site_label
 _atom_site_symmetry_multiplicity
 _atom_site_fract_x
 _atom_site_fract_y
 _atom_site_fract_z
 _atom_site_occupancy
  Sr  Sr0  1  0.013319  0.199142  0.318519  1
  Sr  Sr1  1  0.034715  0.264495  0.661958  1
  Sr  Sr2  1  0.198120  0.687710  0.380765  1
  Sr  Sr3  1  0.259175  0.653206  0.973896  1
  Sr  Sr4  1  0.307422  0.220862  0.061154  1
  Sr  Sr5  1  0.397435  0.928917  0.732169  1
  Sr  Sr6  1  0.504040  0.413389  0.649694  1
  Sr  Sr7  1  0.557617  0.032243  0.348534  1
  Sr  Sr8  1  0.662116  0.535101  0.288084  1
  Sr  Sr9  1  0.779264  0.214456  0.939990  1
  Sr  Sr10  1  0.827350  0.772884  0.034356  1
  Sr  Sr11  1  0.866865  0.768823  0.628625  1
