# generated using pymatgen
data_Sr
_symmetry_space_group_name_H-M   P-1
_cell_length_a   5.63957745
_cell_length_b   6.09304689
_cell_length_c   6.11902845
_cell_angle_alpha   64.88186007
_cell_angle_beta   88.91136747
_cell_angle_gamma   70.32000384
_symmetry_Int_Tables_number   2
_chemical_formula_structural   Sr
_chemical_formula_sum   Sr8
_cell_volume   177.35445576
_cell_formula_units_Z   8
loop_
 _symmetry_equiv_pos_site_id
 _symmetry_equiv_pos_as_xyz
  1  'x, y, z'
  2  '-x, -y, -z'
loop_
 _atom_site_type_symbol
 _atom_site_label
 _atom_site_symmetry_multiplicity
 _atom_site_fract_x
 _atom_site_fract_y
 _atom_site_fract_z
 _atom_site_occupancy
  Sr  Sr0  2  0.202619  0.289116  0.892324  1
  Sr  Sr1  2  0.216000  0.775039  0.383958  1
  Sr  Sr2  2  0.276297  0.257107  0.406671  1
  Sr  Sr3  2  0.295452  0.759521  0.890770  1
