# generated using pymatgen
data_Sr
_symmetry_space_group_name_H-M   Cmmm
_cell_length_a   4.63329086
_cell_length_b   21.71643290
_cell_length_c   3.48927795
_cell_angle_alpha   90.00000000
_cell_angle_beta   90.00000000
_cell_angle_gamma   90.00000000
_symmetry_Int_Tables_number   65
_chemical_formula_structural   Sr
_chemical_formula_sum   Sr14
_cell_volume   351.08608835
_cell_formula_units_Z   14
loop_
 _symmetry_equiv_pos_site_id
 _symmetry_equiv_pos_as_xyz
  1  'x, y, z'
  2  '-x, y, -z'
  3  'x, y, -z'
  4  '-x, y, z'
  5  'x+1/2, y+1/2, z'
  6  '-x+1/2, y+1/2, -z'
  7  'x+1/2, y+1/2, -z'
  8  '-x+1/2, y+1/2, z'
loop_
 _atom_site_type_symbol
 _atom_site_label
 _atom_site_symmetry_multiplicity
 _atom_site_fract_x
 _atom_site_fract_y
 _atom_site_fract_z
 _atom_site_occupancy
  Sr  Sr0  2  0.000000  0.000000  0.000000  1
  Sr  Sr1  2  0.000000  0.162130  0.500000  1
  Sr  Sr2  2  0.000000  0.300478  0.000000  1
  Sr  Sr3  2  0.000000  0.434755  0.500000  1
  Sr  Sr4  2  0.000000  0.576352  0.500000  1
  Sr  Sr5  2  0.000000  0.699522  0.000000  1
  Sr  Sr6  2  0.000000  0.846511  0.500000  1
