# generated using pymatgen
data_Sr
_symmetry_space_group_name_H-M   P1
_cell_length_a   5.50999685
_cell_length_b   7.55106281
_cell_length_c   10.09346816
_cell_angle_alpha   84.29348714
_cell_angle_beta   87.22778886
_cell_angle_gamma   80.34164635
_symmetry_Int_Tables_number   1
_chemical_formula_structural   Sr
_chemical_formula_sum   Sr22
_cell_volume   411.73305280
_cell_formula_units_Z   22
loop_
 _symmetry_equiv_pos_site_id
 _symmetry_equiv_pos_as_xyz
  1  'x, y, z'
loop_
 _atom_site_type_symbol
 _atom_site_label
 _atom_site_symmetry_multiplicity
 _atom_site_fract_x
 _atom_site_fract_y
 _atom_site_fract_z
 _atom_site_occupancy
  Sr  Sr0  1  0.000848  0.913039  0.721390  1
  Sr  Sr1  1  0.053783  0.670424  0.280704  1
  Sr  Sr2  1  0.061768  0.261979  0.589993  1
  Sr  Sr3  1  0.094585  0.008634  0.162235  1
  Sr  Sr4  1  0.173514  0.175180  0.881179  1
  Sr  Sr5  1  0.203547  0.936362  0.455759  1
  Sr  Sr6  1  0.219611  0.566027  0.773250  1
  Sr  Sr7  1  0.248095  0.298919  0.318046  1
  Sr  Sr8  1  0.359178  0.565974  0.510306  1
  Sr  Sr9  1  0.383368  0.438273  0.044162  1
  Sr  Sr10  1  0.407831  0.808520  0.960162  1
  Sr  Sr11  1  0.528894  0.844540  0.696572  1
  Sr  Sr12  1  0.551455  0.209622  0.649801  1
  Sr  Sr13  1  0.552778  0.690512  0.231572  1
  Sr  Sr14  1  0.569304  0.053338  0.178264  1
  Sr  Sr15  1  0.696445  0.994281  0.433659  1
  Sr  Sr16  1  0.713796  0.093921  0.922511  1
  Sr  Sr17  1  0.727976  0.349637  0.357415  1
  Sr  Sr18  1  0.760661  0.483288  0.801287  1
  Sr  Sr19  1  0.821725  0.626382  0.532518  1
  Sr  Sr20  1  0.882566  0.364786  0.092419  1
  Sr  Sr21  1  0.925172  0.719460  0.005393  1
