# generated using pymatgen
data_Sr
_symmetry_space_group_name_H-M   P1
_cell_length_a   3.55544403
_cell_length_b   4.94690613
_cell_length_c   7.34985510
_cell_angle_alpha   88.64077132
_cell_angle_beta   85.92002668
_cell_angle_gamma   85.90601878
_symmetry_Int_Tables_number   1
_chemical_formula_structural   Sr
_chemical_formula_sum   Sr4
_cell_volume   128.59332169
_cell_formula_units_Z   4
loop_
 _symmetry_equiv_pos_site_id
 _symmetry_equiv_pos_as_xyz
  1  'x, y, z'
loop_
 _atom_site_type_symbol
 _atom_site_label
 _atom_site_symmetry_multiplicity
 _atom_site_fract_x
 _atom_site_fract_y
 _atom_site_fract_z
 _atom_site_occupancy
  Sr  Sr0  1  0.380953  0.376059  0.480717  1
  Sr  Sr1  1  0.446970  0.389972  0.037100  1
  Sr  Sr2  1  0.917112  0.880028  0.313519  1
  Sr  Sr3  1  0.928239  0.902236  0.764157  1
