# generated using pymatgen
data_Sr
_symmetry_space_group_name_H-M   P1
_cell_length_a   3.52034701
_cell_length_b   4.85753583
_cell_length_c   5.72523973
_cell_angle_alpha   109.67198176
_cell_angle_beta   104.15750266
_cell_angle_gamma   92.95273365
_symmetry_Int_Tables_number   1
_chemical_formula_structural   Sr
_chemical_formula_sum   Sr3
_cell_volume   88.42295436
_cell_formula_units_Z   3
loop_
 _symmetry_equiv_pos_site_id
 _symmetry_equiv_pos_as_xyz
  1  'x, y, z'
loop_
 _atom_site_type_symbol
 _atom_site_label
 _atom_site_symmetry_multiplicity
 _atom_site_fract_x
 _atom_site_fract_y
 _atom_site_fract_z
 _atom_site_occupancy
  Sr  Sr0  1  0.106225  0.110679  0.170606  1
  Sr  Sr1  1  0.431708  0.447838  0.851741  1
  Sr  Sr2  1  0.692929  0.781730  0.489130  1
