# generated using pymatgen
data_Sr
_symmetry_space_group_name_H-M   C2/c
_cell_length_a   12.56972939
_cell_length_b   9.57387497
_cell_length_c   5.49701881
_cell_angle_alpha   90.00000000
_cell_angle_beta   115.24787961
_cell_angle_gamma   90.00000000
_symmetry_Int_Tables_number   15
_chemical_formula_structural   Sr
_chemical_formula_sum   Sr28
_cell_volume   598.32274915
_cell_formula_units_Z   28
loop_
 _symmetry_equiv_pos_site_id
 _symmetry_equiv_pos_as_xyz
  1  'x, y, z'
  2  '-x, -y, -z'
  3  '-x, y, -z+1/2'
  4  'x, -y, z+1/2'
  5  'x+1/2, y+1/2, z'
  6  '-x+1/2, -y+1/2, -z'
  7  '-x+1/2, y+1/2, -z+1/2'
  8  'x+1/2, -y+1/2, z+1/2'
loop_
 _atom_site_type_symbol
 _atom_site_label
 _atom_site_symmetry_multiplicity
 _atom_site_fract_x
 _atom_site_fract_y
 _atom_site_fract_z
 _atom_site_occupancy
  Sr  Sr0  8  0.048407  0.140147  0.545961  1
  Sr  Sr1  8  0.154196  0.336587  0.339519  1
  Sr  Sr2  8  0.231658  0.094046  0.089747  1
  Sr  Sr3  4  0.000000  0.447401  0.750000  1
