# generated using pymatgen
data_Sr
_symmetry_space_group_name_H-M   C2
_cell_length_a   12.13792393
_cell_length_b   4.10240796
_cell_length_c   8.54711073
_cell_angle_alpha   90.00000000
_cell_angle_beta   134.49035987
_cell_angle_gamma   90.00000000
_symmetry_Int_Tables_number   5
_chemical_formula_structural   Sr
_chemical_formula_sum   Sr10
_cell_volume   303.61025493
_cell_formula_units_Z   10
loop_
 _symmetry_equiv_pos_site_id
 _symmetry_equiv_pos_as_xyz
  1  'x, y, z'
  2  '-x, y, -z'
  3  'x+1/2, y+1/2, z'
  4  '-x+1/2, y+1/2, -z'
loop_
 _atom_site_type_symbol
 _atom_site_label
 _atom_site_symmetry_multiplicity
 _atom_site_fract_x
 _atom_site_fract_y
 _atom_site_fract_z
 _atom_site_occupancy
  Sr  Sr0  4  0.152569  0.568068  0.993853  1
  Sr  Sr1  4  0.154644  0.049364  0.309252  1
  Sr  Sr2  2  0.000000  0.276012  0.500000  1
