# generated using pymatgen
data_Sr
_symmetry_space_group_name_H-M   Cm
_cell_length_a   9.51378637
_cell_length_b   7.02253663
_cell_length_c   5.24732748
_cell_angle_alpha   90.00000000
_cell_angle_beta   116.48563696
_cell_angle_gamma   90.00000000
_symmetry_Int_Tables_number   8
_chemical_formula_structural   Sr
_chemical_formula_sum   Sr12
_cell_volume   313.78416564
_cell_formula_units_Z   12
loop_
 _symmetry_equiv_pos_site_id
 _symmetry_equiv_pos_as_xyz
  1  'x, y, z'
  2  'x, -y, z'
  3  'x+1/2, y+1/2, z'
  4  'x+1/2, -y+1/2, z'
loop_
 _atom_site_type_symbol
 _atom_site_label
 _atom_site_symmetry_multiplicity
 _atom_site_fract_x
 _atom_site_fract_y
 _atom_site_fract_z
 _atom_site_occupancy
  Sr  Sr0  4  0.352982  0.245443  0.675640  1
  Sr  Sr1  2  0.012460  0.000000  0.358018  1
  Sr  Sr2  2  0.038437  0.500000  0.367673  1
  Sr  Sr3  2  0.183339  0.000000  0.005269  1
  Sr  Sr4  2  0.185125  0.500000  0.978198  1
