# generated using pymatgen
data_Sr
_symmetry_space_group_name_H-M   P1
_cell_length_a   7.31481396
_cell_length_b   8.29496715
_cell_length_c   8.70427768
_cell_angle_alpha   118.08387289
_cell_angle_beta   100.00213265
_cell_angle_gamma   104.48696610
_symmetry_Int_Tables_number   1
_chemical_formula_structural   Sr
_chemical_formula_sum   Sr21
_cell_volume   424.07103408
_cell_formula_units_Z   21
loop_
 _symmetry_equiv_pos_site_id
 _symmetry_equiv_pos_as_xyz
  1  'x, y, z'
loop_
 _atom_site_type_symbol
 _atom_site_label
 _atom_site_symmetry_multiplicity
 _atom_site_fract_x
 _atom_site_fract_y
 _atom_site_fract_z
 _atom_site_occupancy
  Sr  Sr0  1  0.026643  0.014518  0.341269  1
  Sr  Sr1  1  0.053781  0.697074  0.715969  1
  Sr  Sr2  1  0.079474  0.699965  0.061406  1
  Sr  Sr3  1  0.123595  0.019608  0.673403  1
  Sr  Sr4  1  0.206541  0.437278  0.476275  1
  Sr  Sr5  1  0.261563  0.467310  0.834253  1
  Sr  Sr6  1  0.285739  0.762092  0.429259  1
  Sr  Sr7  1  0.319053  0.411979  0.163164  1
  Sr  Sr8  1  0.372144  0.083385  0.161831  1
  Sr  Sr9  1  0.452867  0.214415  0.564877  1
  Sr  Sr10  1  0.483069  0.844301  0.840917  1
  Sr  Sr11  1  0.525420  0.224275  0.916394  1
  Sr  Sr12  1  0.575879  0.835484  0.231985  1
  Sr  Sr13  1  0.642592  0.523597  0.503297  1
  Sr  Sr14  1  0.677285  0.600414  0.880537  1
  Sr  Sr15  1  0.692932  0.911274  0.614603  1
  Sr  Sr16  1  0.793072  0.219929  0.223447  1
  Sr  Sr17  1  0.823615  0.607951  0.272732  1
  Sr  Sr18  1  0.840501  0.258305  0.588602  1
  Sr  Sr19  1  0.922652  0.309789  0.942023  1
  Sr  Sr20  1  0.966157  0.994775  0.972958  1
