# generated using pymatgen
data_Sr
_symmetry_space_group_name_H-M   P1
_cell_length_a   5.61640569
_cell_length_b   7.92125127
_cell_length_c   8.13700652
_cell_angle_alpha   95.60483059
_cell_angle_beta   106.91085832
_cell_angle_gamma   93.87416733
_symmetry_Int_Tables_number   1
_chemical_formula_structural   Sr
_chemical_formula_sum   Sr16
_cell_volume   342.94191524
_cell_formula_units_Z   16
loop_
 _symmetry_equiv_pos_site_id
 _symmetry_equiv_pos_as_xyz
  1  'x, y, z'
loop_
 _atom_site_type_symbol
 _atom_site_label
 _atom_site_symmetry_multiplicity
 _atom_site_fract_x
 _atom_site_fract_y
 _atom_site_fract_z
 _atom_site_occupancy
  Sr  Sr0  1  0.119244  0.978734  0.920231  1
  Sr  Sr1  1  0.147600  0.139128  0.398643  1
  Sr  Sr2  1  0.150851  0.269347  0.750248  1
  Sr  Sr3  1  0.229268  0.314328  0.123145  1
  Sr  Sr4  1  0.243077  0.606661  0.934194  1
  Sr  Sr5  1  0.344030  0.827990  0.242021  1
  Sr  Sr6  1  0.382960  0.550204  0.427643  1
  Sr  Sr7  1  0.385622  0.877648  0.656522  1
  Sr  Sr8  1  0.617044  0.284545  0.663409  1
  Sr  Sr9  1  0.663993  0.194041  0.314012  1
  Sr  Sr10  1  0.676623  0.111918  0.958361  1
  Sr  Sr11  1  0.709561  0.632696  0.836238  1
  Sr  Sr12  1  0.779206  0.477504  0.154251  1
  Sr  Sr13  1  0.821864  0.845158  0.174837  1
  Sr  Sr14  1  0.838314  0.892665  0.556123  1
  Sr  Sr15  1  0.952177  0.554445  0.527032  1
