# generated using pymatgen
data_Sr
_symmetry_space_group_name_H-M   P1
_cell_length_a   5.88868739
_cell_length_b   6.09143710
_cell_length_c   10.96400079
_cell_angle_alpha   92.23033803
_cell_angle_beta   103.36342947
_cell_angle_gamma   117.64448104
_symmetry_Int_Tables_number   1
_chemical_formula_structural   Sr
_chemical_formula_sum   Sr15
_cell_volume   334.04640594
_cell_formula_units_Z   15
loop_
 _symmetry_equiv_pos_site_id
 _symmetry_equiv_pos_as_xyz
  1  'x, y, z'
loop_
 _atom_site_type_symbol
 _atom_site_label
 _atom_site_symmetry_multiplicity
 _atom_site_fract_x
 _atom_site_fract_y
 _atom_site_fract_z
 _atom_site_occupancy
  Sr  Sr0  1  0.029896  0.081859  0.003480  1
  Sr  Sr1  1  0.058610  0.847466  0.658116  1
  Sr  Sr2  1  0.110898  0.100774  0.268678  1
  Sr  Sr3  1  0.197542  0.687863  0.300789  1
  Sr  Sr4  1  0.222836  0.527244  0.535025  1
  Sr  Sr5  1  0.382264  0.883845  0.935940  1
  Sr  Sr6  1  0.383050  0.350139  0.812602  1
  Sr  Sr7  1  0.425898  0.186234  0.529529  1
  Sr  Sr8  1  0.507128  0.614459  0.131436  1
  Sr  Sr9  1  0.652399  0.180401  0.208401  1
  Sr  Sr10  1  0.655308  0.854398  0.742694  1
  Sr  Sr11  1  0.693401  0.564257  0.390121  1
  Sr  Sr12  1  0.771513  0.043138  0.464596  1
  Sr  Sr13  1  0.877963  0.374988  0.742587  1
  Sr  Sr14  1  0.884955  0.519987  0.020747  1
