# generated using pymatgen
data_Sr
_symmetry_space_group_name_H-M   P1
_cell_length_a   5.90600709
_cell_length_b   5.90789900
_cell_length_c   8.34910709
_cell_angle_alpha   96.00560441
_cell_angle_beta   105.13936382
_cell_angle_gamma   117.87580402
_symmetry_Int_Tables_number   1
_chemical_formula_structural   Sr
_chemical_formula_sum   Sr10
_cell_volume   239.64036502
_cell_formula_units_Z   10
loop_
 _symmetry_equiv_pos_site_id
 _symmetry_equiv_pos_as_xyz
  1  'x, y, z'
loop_
 _atom_site_type_symbol
 _atom_site_label
 _atom_site_symmetry_multiplicity
 _atom_site_fract_x
 _atom_site_fract_y
 _atom_site_fract_z
 _atom_site_occupancy
  Sr  Sr0  1  0.093585  0.958459  0.226281  1
  Sr  Sr1  1  0.112828  0.473833  0.099889  1
  Sr  Sr2  1  0.166417  0.606206  0.531642  1
  Sr  Sr3  1  0.399696  0.219962  0.599140  1
  Sr  Sr4  1  0.455872  0.351076  0.976584  1
  Sr  Sr5  1  0.595943  0.874212  0.919842  1
  Sr  Sr6  1  0.632790  0.644577  0.386565  1
  Sr  Sr7  1  0.675529  0.135916  0.274129  1
  Sr  Sr8  1  0.853060  0.106959  0.672067  1
  Sr  Sr9  1  0.966844  0.700657  0.818723  1
