# generated using pymatgen
data_Sr
_symmetry_space_group_name_H-M   P1
_cell_length_a   7.50089210
_cell_length_b   7.79402168
_cell_length_c   7.92181520
_cell_angle_alpha   117.74012656
_cell_angle_beta   91.65277377
_cell_angle_gamma   115.15488705
_symmetry_Int_Tables_number   1
_chemical_formula_structural   Sr
_chemical_formula_sum   Sr17
_cell_volume   355.86002008
_cell_formula_units_Z   17
loop_
 _symmetry_equiv_pos_site_id
 _symmetry_equiv_pos_as_xyz
  1  'x, y, z'
loop_
 _atom_site_type_symbol
 _atom_site_label
 _atom_site_symmetry_multiplicity
 _atom_site_fract_x
 _atom_site_fract_y
 _atom_site_fract_z
 _atom_site_occupancy
  Sr  Sr0  1  0.035044  0.023894  0.542426  1
  Sr  Sr1  1  0.076567  0.615031  0.344123  1
  Sr  Sr2  1  0.099125  0.222456  0.272087  1
  Sr  Sr3  1  0.185683  0.994900  0.927762  1
  Sr  Sr4  1  0.245950  0.565550  0.679161  1
  Sr  Sr5  1  0.269514  0.786255  0.115359  1
  Sr  Sr6  1  0.393120  0.411089  0.920552  1
  Sr  Sr7  1  0.416490  0.222537  0.483777  1
  Sr  Sr8  1  0.464586  0.985632  0.687518  1
  Sr  Sr9  1  0.484713  0.606731  0.341954  1
  Sr  Sr10  1  0.639509  0.279808  0.173691  1
  Sr  Sr11  1  0.648707  0.871519  0.938503  1
  Sr  Sr12  1  0.703090  0.039823  0.375896  1
  Sr  Sr13  1  0.799828  0.684544  0.617396  1
  Sr  Sr14  1  0.836893  0.709544  0.113829  1
  Sr  Sr15  1  0.864111  0.437986  0.740626  1
  Sr  Sr16  1  0.941871  0.246145  0.921031  1
