# generated using pymatgen
data_Sr
_symmetry_space_group_name_H-M   P-1
_cell_length_a   6.08717646
_cell_length_b   6.27378234
_cell_length_c   6.76415349
_cell_angle_alpha   71.33579929
_cell_angle_beta   64.96131510
_cell_angle_gamma   80.39138547
_symmetry_Int_Tables_number   2
_chemical_formula_structural   Sr
_chemical_formula_sum   Sr10
_cell_volume   221.58668198
_cell_formula_units_Z   10
loop_
 _symmetry_equiv_pos_site_id
 _symmetry_equiv_pos_as_xyz
  1  'x, y, z'
  2  '-x, -y, -z'
loop_
 _atom_site_type_symbol
 _atom_site_label
 _atom_site_symmetry_multiplicity
 _atom_site_fract_x
 _atom_site_fract_y
 _atom_site_fract_z
 _atom_site_occupancy
  Sr  Sr0  2  0.035588  0.600529  0.654096  1
  Sr  Sr1  2  0.209921  0.065332  0.128981  1
  Sr  Sr2  2  0.242462  0.717309  0.947931  1
  Sr  Sr3  2  0.269478  0.122839  0.554775  1
  Sr  Sr4  2  0.485359  0.630752  0.263686  1
