# generated using pymatgen
data_Sr
_symmetry_space_group_name_H-M   P-1
_cell_length_a   4.40741895
_cell_length_b   6.11214815
_cell_length_c   6.26738344
_cell_angle_alpha   103.02069454
_cell_angle_beta   109.02592789
_cell_angle_gamma   109.67609963
_symmetry_Int_Tables_number   2
_chemical_formula_structural   Sr
_chemical_formula_sum   Sr4
_cell_volume   139.23951336
_cell_formula_units_Z   4
loop_
 _symmetry_equiv_pos_site_id
 _symmetry_equiv_pos_as_xyz
  1  'x, y, z'
  2  '-x, -y, -z'
loop_
 _atom_site_type_symbol
 _atom_site_label
 _atom_site_symmetry_multiplicity
 _atom_site_fract_x
 _atom_site_fract_y
 _atom_site_fract_z
 _atom_site_occupancy
  Sr  Sr0  2  0.121218  0.472122  0.310759  1
  Sr  Sr1  2  0.255294  0.174094  0.853156  1
