# generated using pymatgen
data_Sr
_symmetry_space_group_name_H-M   P1
_cell_length_a   6.27020333
_cell_length_b   6.40298043
_cell_length_c   6.44106839
_cell_angle_alpha   119.41566731
_cell_angle_beta   91.60839187
_cell_angle_gamma   92.34290538
_symmetry_Int_Tables_number   1
_chemical_formula_structural   Sr
_chemical_formula_sum   Sr9
_cell_volume   224.72470862
_cell_formula_units_Z   9
loop_
 _symmetry_equiv_pos_site_id
 _symmetry_equiv_pos_as_xyz
  1  'x, y, z'
loop_
 _atom_site_type_symbol
 _atom_site_label
 _atom_site_symmetry_multiplicity
 _atom_site_fract_x
 _atom_site_fract_y
 _atom_site_fract_z
 _atom_site_occupancy
  Sr  Sr0  1  0.099368  0.305101  0.787057  1
  Sr  Sr1  1  0.193511  0.785308  0.202412  1
  Sr  Sr2  1  0.273339  0.493191  0.439743  1
  Sr  Sr3  1  0.416853  0.059358  0.974663  1
  Sr  Sr4  1  0.577175  0.027440  0.521797  1
  Sr  Sr5  1  0.623109  0.555473  0.732197  1
  Sr  Sr6  1  0.694633  0.538546  0.159692  1
  Sr  Sr7  1  0.882967  0.122262  0.213573  1
  Sr  Sr8  1  0.946605  0.815443  0.690238  1
