# generated using pymatgen
data_Sr
_symmetry_space_group_name_H-M   P1
_cell_length_a   5.80717911
_cell_length_b   5.82065292
_cell_length_c   7.73821996
_cell_angle_alpha   68.66897635
_cell_angle_beta   79.73441600
_cell_angle_gamma   74.51919423
_symmetry_Int_Tables_number   1
_chemical_formula_structural   Sr
_chemical_formula_sum   Sr11
_cell_volume   233.84531892
_cell_formula_units_Z   11
loop_
 _symmetry_equiv_pos_site_id
 _symmetry_equiv_pos_as_xyz
  1  'x, y, z'
loop_
 _atom_site_type_symbol
 _atom_site_label
 _atom_site_symmetry_multiplicity
 _atom_site_fract_x
 _atom_site_fract_y
 _atom_site_fract_z
 _atom_site_occupancy
  Sr  Sr0  1  0.029992  0.919932  0.650914  1
  Sr  Sr1  1  0.039957  0.851581  0.030339  1
  Sr  Sr2  1  0.284713  0.270249  0.195542  1
  Sr  Sr3  1  0.288543  0.735465  0.352292  1
  Sr  Sr4  1  0.393455  0.211125  0.586116  1
  Sr  Sr5  1  0.462706  0.518369  0.818274  1
  Sr  Sr6  1  0.571494  0.939961  0.922364  1
  Sr  Sr7  1  0.714554  0.924870  0.376654  1
  Sr  Sr8  1  0.756014  0.432989  0.234816  1
  Sr  Sr9  1  0.883230  0.423534  0.552367  1
  Sr  Sr10  1  0.961594  0.363898  0.904758  1
