# generated using pymatgen
data_Sr
_symmetry_space_group_name_H-M   P1
_cell_length_a   5.80270711
_cell_length_b   8.10786862
_cell_length_c   8.25860058
_cell_angle_alpha   60.90145443
_cell_angle_beta   70.17187444
_cell_angle_gamma   84.74126001
_symmetry_Int_Tables_number   1
_chemical_formula_structural   Sr
_chemical_formula_sum   Sr14
_cell_volume   318.10617499
_cell_formula_units_Z   14
loop_
 _symmetry_equiv_pos_site_id
 _symmetry_equiv_pos_as_xyz
  1  'x, y, z'
loop_
 _atom_site_type_symbol
 _atom_site_label
 _atom_site_symmetry_multiplicity
 _atom_site_fract_x
 _atom_site_fract_y
 _atom_site_fract_z
 _atom_site_occupancy
  Sr  Sr0  1  0.003230  0.528385  0.316086  1
  Sr  Sr1  1  0.011357  0.536864  0.682601  1
  Sr  Sr2  1  0.015358  0.767846  0.873610  1
  Sr  Sr3  1  0.073642  0.317848  0.099992  1
  Sr  Sr4  1  0.222092  0.926928  0.413878  1
  Sr  Sr5  1  0.230954  0.184116  0.591957  1
  Sr  Sr6  1  0.263849  0.970729  0.025050  1
  Sr  Sr7  1  0.497155  0.420927  0.674384  1
  Sr  Sr8  1  0.513356  0.638113  0.244036  1
  Sr  Sr9  1  0.515117  0.661995  0.842688  1
  Sr  Sr10  1  0.554341  0.307076  0.174597  1
  Sr  Sr11  1  0.723595  0.863159  0.387267  1
  Sr  Sr12  1  0.733889  0.094355  0.573139  1
  Sr  Sr13  1  0.745969  0.102939  0.953426  1
