# generated using pymatgen
data_Sr
_symmetry_space_group_name_H-M   Cm
_cell_length_a   15.67210689
_cell_length_b   3.36889553
_cell_length_c   8.36788278
_cell_angle_alpha   90.00000000
_cell_angle_beta   96.58420083
_cell_angle_gamma   90.00000000
_symmetry_Int_Tables_number   8
_chemical_formula_structural   Sr
_chemical_formula_sum   Sr18
_cell_volume   438.89092942
_cell_formula_units_Z   18
loop_
 _symmetry_equiv_pos_site_id
 _symmetry_equiv_pos_as_xyz
  1  'x, y, z'
  2  'x, -y, z'
  3  'x+1/2, y+1/2, z'
  4  'x+1/2, -y+1/2, z'
loop_
 _atom_site_type_symbol
 _atom_site_label
 _atom_site_symmetry_multiplicity
 _atom_site_fract_x
 _atom_site_fract_y
 _atom_site_fract_z
 _atom_site_occupancy
  Sr  Sr0  2  0.035257  0.000000  0.345955  1
  Sr  Sr1  2  0.086337  0.500000  0.686470  1
  Sr  Sr2  2  0.097097  0.000000  0.041665  1
  Sr  Sr3  2  0.209528  0.500000  0.391538  1
  Sr  Sr4  2  0.257063  0.500000  0.027651  1
  Sr  Sr5  2  0.260184  0.000000  0.738422  1
  Sr  Sr6  2  0.373291  0.000000  0.264678  1
  Sr  Sr7  2  0.397754  0.500000  0.594435  1
  Sr  Sr8  2  0.442841  0.000000  0.939909  1
