# generated using pymatgen
data_Sr
_symmetry_space_group_name_H-M   Cm
_cell_length_a   6.10126768
_cell_length_b   3.41293356
_cell_length_c   11.77966990
_cell_angle_alpha   90.00000000
_cell_angle_beta   91.19176437
_cell_angle_gamma   90.00000000
_symmetry_Int_Tables_number   8
_chemical_formula_structural   Sr
_chemical_formula_sum   Sr8
_cell_volume   245.23761206
_cell_formula_units_Z   8
loop_
 _symmetry_equiv_pos_site_id
 _symmetry_equiv_pos_as_xyz
  1  'x, y, z'
  2  'x, -y, z'
  3  'x+1/2, y+1/2, z'
  4  'x+1/2, -y+1/2, z'
loop_
 _atom_site_type_symbol
 _atom_site_label
 _atom_site_symmetry_multiplicity
 _atom_site_fract_x
 _atom_site_fract_y
 _atom_site_fract_z
 _atom_site_occupancy
  Sr  Sr0  2  0.123854  0.500000  0.899945  1
  Sr  Sr1  2  0.276609  0.000000  0.632234  1
  Sr  Sr2  2  0.408814  0.500000  0.163173  1
  Sr  Sr3  2  0.423512  0.500000  0.393382  1
