# generated using pymatgen
data_Sr
_symmetry_space_group_name_H-M   P-1
_cell_length_a   6.23103341
_cell_length_b   7.31560635
_cell_length_c   7.85435590
_cell_angle_alpha   102.74307635
_cell_angle_beta   110.59723350
_cell_angle_gamma   105.65492373
_symmetry_Int_Tables_number   2
_chemical_formula_structural   Sr
_chemical_formula_sum   Sr14
_cell_volume   302.29579114
_cell_formula_units_Z   14
loop_
 _symmetry_equiv_pos_site_id
 _symmetry_equiv_pos_as_xyz
  1  'x, y, z'
  2  '-x, -y, -z'
loop_
 _atom_site_type_symbol
 _atom_site_label
 _atom_site_symmetry_multiplicity
 _atom_site_fract_x
 _atom_site_fract_y
 _atom_site_fract_z
 _atom_site_occupancy
  Sr  Sr0  2  0.025314  0.779200  0.589568  1
  Sr  Sr1  2  0.070546  0.571394  0.865481  1
  Sr  Sr2  2  0.181308  0.928886  0.319590  1
  Sr  Sr3  2  0.200600  0.193256  0.064926  1
  Sr  Sr4  2  0.383309  0.423747  0.771591  1
  Sr  Sr5  2  0.405390  0.671696  0.505381  1
  Sr  Sr6  2  0.478914  0.092838  0.838186  1
