# generated using pymatgen
data_Sr
_symmetry_space_group_name_H-M   P1
_cell_length_a   7.38410506
_cell_length_b   7.56896753
_cell_length_c   8.44977169
_cell_angle_alpha   90.14988547
_cell_angle_beta   90.06042392
_cell_angle_gamma   90.01651746
_symmetry_Int_Tables_number   1
_chemical_formula_structural   Sr
_chemical_formula_sum   Sr22
_cell_volume   472.25627609
_cell_formula_units_Z   22
loop_
 _symmetry_equiv_pos_site_id
 _symmetry_equiv_pos_as_xyz
  1  'x, y, z'
loop_
 _atom_site_type_symbol
 _atom_site_label
 _atom_site_symmetry_multiplicity
 _atom_site_fract_x
 _atom_site_fract_y
 _atom_site_fract_z
 _atom_site_occupancy
  Sr  Sr0  1  0.032528  0.282706  0.840954  1
  Sr  Sr1  1  0.032952  0.584488  0.095261  1
  Sr  Sr2  1  0.037996  0.582267  0.601656  1
  Sr  Sr3  1  0.044076  0.269340  0.348033  1
  Sr  Sr4  1  0.180104  0.929923  0.569807  1
  Sr  Sr5  1  0.181434  0.920068  0.238613  1
  Sr  Sr6  1  0.187796  0.938936  0.903564  1
  Sr  Sr7  1  0.329846  0.304345  0.091219  1
  Sr  Sr8  1  0.331594  0.271211  0.606590  1
  Sr  Sr9  1  0.334302  0.575392  0.361179  1
  Sr  Sr10  1  0.334789  0.591339  0.843570  1
  Sr  Sr11  1  0.531169  0.792327  0.606612  1
  Sr  Sr12  1  0.531320  0.082377  0.339283  1
  Sr  Sr13  1  0.545859  0.760683  0.101530  1
  Sr  Sr14  1  0.549350  0.084367  0.849526  1
  Sr  Sr15  1  0.680672  0.441175  0.536004  1
  Sr  Sr16  1  0.685405  0.434127  0.871297  1
  Sr  Sr17  1  0.698779  0.420764  0.206629  1
  Sr  Sr18  1  0.824327  0.094349  0.596601  1
  Sr  Sr19  1  0.832028  0.779699  0.356846  1
  Sr  Sr20  1  0.836288  0.778825  0.841168  1
  Sr  Sr21  1  0.838543  0.076358  0.092953  1
