# generated using pymatgen
data_Sr
_symmetry_space_group_name_H-M   P1
_cell_length_a   5.35372930
_cell_length_b   5.36993355
_cell_length_c   10.03626704
_cell_angle_alpha   103.74826475
_cell_angle_beta   90.59632740
_cell_angle_gamma   113.77107173
_symmetry_Int_Tables_number   1
_chemical_formula_structural   Sr
_chemical_formula_sum   Sr13
_cell_volume   254.65358229
_cell_formula_units_Z   13
loop_
 _symmetry_equiv_pos_site_id
 _symmetry_equiv_pos_as_xyz
  1  'x, y, z'
loop_
 _atom_site_type_symbol
 _atom_site_label
 _atom_site_symmetry_multiplicity
 _atom_site_fract_x
 _atom_site_fract_y
 _atom_site_fract_z
 _atom_site_occupancy
  Sr  Sr0  1  0.150504  0.195907  0.948528  1
  Sr  Sr1  1  0.189100  0.802957  0.139329  1
  Sr  Sr2  1  0.219507  0.774144  0.423307  1
  Sr  Sr3  1  0.242824  0.487356  0.674720  1
  Sr  Sr4  1  0.392678  0.309839  0.335512  1
  Sr  Sr5  1  0.447506  0.111266  0.683667  1
  Sr  Sr6  1  0.524494  0.957799  0.932435  1
  Sr  Sr7  1  0.583177  0.585772  0.126698  1
  Sr  Sr8  1  0.793951  0.413809  0.530998  1
  Sr  Sr9  1  0.801985  0.929769  0.401082  1
  Sr  Sr10  1  0.850824  0.912962  0.696011  1
  Sr  Sr11  1  0.859939  0.233403  0.209439  1
  Sr  Sr12  1  0.891414  0.574375  0.860385  1
