# generated using pymatgen
data_Sr
_symmetry_space_group_name_H-M   P1
_cell_length_a   6.09172287
_cell_length_b   6.13999251
_cell_length_c   6.21887741
_cell_angle_alpha   88.56956785
_cell_angle_beta   62.35140247
_cell_angle_gamma   85.25062007
_symmetry_Int_Tables_number   1
_chemical_formula_structural   Sr
_chemical_formula_sum   Sr8
_cell_volume   205.31300520
_cell_formula_units_Z   8
loop_
 _symmetry_equiv_pos_site_id
 _symmetry_equiv_pos_as_xyz
  1  'x, y, z'
loop_
 _atom_site_type_symbol
 _atom_site_label
 _atom_site_symmetry_multiplicity
 _atom_site_fract_x
 _atom_site_fract_y
 _atom_site_fract_z
 _atom_site_occupancy
  Sr  Sr0  1  0.214628  0.803345  0.481476  1
  Sr  Sr1  1  0.271840  0.444246  0.042594  1
  Sr  Sr2  1  0.402414  0.251382  0.407131  1
  Sr  Sr3  1  0.436260  0.888764  0.945035  1
  Sr  Sr4  1  0.726247  0.676233  0.403888  1
  Sr  Sr5  1  0.786948  0.188939  0.567704  1
  Sr  Sr6  1  0.908753  0.485782  0.864929  1
  Sr  Sr7  1  0.944084  0.018367  0.001467  1
