# generated using pymatgen
data_Sr
_symmetry_space_group_name_H-M   Pm
_cell_length_a   9.27717861
_cell_length_b   2.91268440
_cell_length_c   10.87478829
_cell_angle_alpha   90.00000000
_cell_angle_beta   103.69402967
_cell_angle_gamma   90.00000000
_symmetry_Int_Tables_number   6
_chemical_formula_structural   Sr
_chemical_formula_sum   Sr14
_cell_volume   285.49989308
_cell_formula_units_Z   14
loop_
 _symmetry_equiv_pos_site_id
 _symmetry_equiv_pos_as_xyz
  1  'x, y, z'
  2  'x, -y, z'
loop_
 _atom_site_type_symbol
 _atom_site_label
 _atom_site_symmetry_multiplicity
 _atom_site_fract_x
 _atom_site_fract_y
 _atom_site_fract_z
 _atom_site_occupancy
  Sr  Sr0  1  0.011694  0.500000  0.358495  1
  Sr  Sr1  1  0.132754  0.500000  0.152577  1
  Sr  Sr2  1  0.147161  0.500000  0.900725  1
  Sr  Sr3  1  0.254721  0.000000  0.504954  1
  Sr  Sr4  1  0.320881  0.500000  0.731143  1
  Sr  Sr5  1  0.399046  0.500000  0.077667  1
  Sr  Sr6  1  0.406697  0.500000  0.349144  1
  Sr  Sr7  1  0.573575  0.500000  0.915668  1
  Sr  Sr8  1  0.594674  0.500000  0.643196  1
  Sr  Sr9  1  0.673491  0.500000  0.244759  1
  Sr  Sr10  1  0.745782  0.000000  0.480122  1
  Sr  Sr11  1  0.844150  0.000000  0.085830  1
  Sr  Sr12  1  0.848082  0.500000  0.848264  1
  Sr  Sr13  1  0.986883  0.500000  0.644232  1
