# generated using pymatgen
data_Sr
_symmetry_space_group_name_H-M   P1
_cell_length_a   2.94681699
_cell_length_b   9.15469676
_cell_length_c   10.69816658
_cell_angle_alpha   87.11093121
_cell_angle_beta   82.48064932
_cell_angle_gamma   89.65034109
_symmetry_Int_Tables_number   1
_chemical_formula_structural   Sr
_chemical_formula_sum   Sr14
_cell_volume   285.76123744
_cell_formula_units_Z   14
loop_
 _symmetry_equiv_pos_site_id
 _symmetry_equiv_pos_as_xyz
  1  'x, y, z'
loop_
 _atom_site_type_symbol
 _atom_site_label
 _atom_site_symmetry_multiplicity
 _atom_site_fract_x
 _atom_site_fract_y
 _atom_site_fract_z
 _atom_site_occupancy
  Sr  Sr0  1  0.118892  0.979826  0.383018  1
  Sr  Sr1  1  0.180511  0.533257  0.236648  1
  Sr  Sr2  1  0.258156  0.096144  0.110404  1
  Sr  Sr3  1  0.353904  0.653586  0.983300  1
  Sr  Sr4  1  0.391556  0.210427  0.827170  1
  Sr  Sr5  1  0.478449  0.756623  0.678061  1
  Sr  Sr6  1  0.513408  0.086043  0.599970  1
  Sr  Sr7  1  0.539968  0.395569  0.535490  1
  Sr  Sr8  1  0.594537  0.673212  0.434098  1
  Sr  Sr9  1  0.629753  0.260579  0.307710  1
  Sr  Sr10  1  0.728904  0.828401  0.163491  1
  Sr  Sr11  1  0.736611  0.381763  0.010275  1
  Sr  Sr12  1  0.865128  0.934126  0.868331  1
  Sr  Sr13  1  0.935830  0.489242  0.760188  1
