# generated using pymatgen
data_Sr
_symmetry_space_group_name_H-M   C2/c
_cell_length_a   10.10354344
_cell_length_b   6.11759762
_cell_length_c   5.93024318
_cell_angle_alpha   90.00000000
_cell_angle_beta   122.22741858
_cell_angle_gamma   90.00000000
_symmetry_Int_Tables_number   15
_chemical_formula_structural   Sr
_chemical_formula_sum   Sr12
_cell_volume   310.07424225
_cell_formula_units_Z   12
loop_
 _symmetry_equiv_pos_site_id
 _symmetry_equiv_pos_as_xyz
  1  'x, y, z'
  2  '-x, -y, -z'
  3  '-x, y, -z+1/2'
  4  'x, -y, z+1/2'
  5  'x+1/2, y+1/2, z'
  6  '-x+1/2, -y+1/2, -z'
  7  '-x+1/2, y+1/2, -z+1/2'
  8  'x+1/2, -y+1/2, z+1/2'
loop_
 _atom_site_type_symbol
 _atom_site_label
 _atom_site_symmetry_multiplicity
 _atom_site_fract_x
 _atom_site_fract_y
 _atom_site_fract_z
 _atom_site_occupancy
  Sr  Sr0  8  0.169778  0.429566  0.055938  1
  Sr  Sr1  4  0.000000  0.101329  0.250000  1
