# generated using pymatgen
data_Sr
_symmetry_space_group_name_H-M   P-1
_cell_length_a   4.66462777
_cell_length_b   6.46433359
_cell_length_c   6.95810215
_cell_angle_alpha   74.13489310
_cell_angle_beta   89.95043229
_cell_angle_gamma   89.19375306
_symmetry_Int_Tables_number   2
_chemical_formula_structural   Sr
_chemical_formula_sum   Sr8
_cell_volume   201.79945655
_cell_formula_units_Z   8
loop_
 _symmetry_equiv_pos_site_id
 _symmetry_equiv_pos_as_xyz
  1  'x, y, z'
  2  '-x, -y, -z'
loop_
 _atom_site_type_symbol
 _atom_site_label
 _atom_site_symmetry_multiplicity
 _atom_site_fract_x
 _atom_site_fract_y
 _atom_site_fract_z
 _atom_site_occupancy
  Sr  Sr0  2  0.232398  0.861971  0.662698  1
  Sr  Sr1  2  0.244328  0.849575  0.160840  1
  Sr  Sr2  2  0.258200  0.337924  0.539536  1
  Sr  Sr3  2  0.260638  0.356799  0.035432  1
