# generated using pymatgen
data_Sr
_symmetry_space_group_name_H-M   P2_1/m
_cell_length_a   5.93862638
_cell_length_b   3.41228990
_cell_length_c   5.98713473
_cell_angle_alpha   90.00000000
_cell_angle_beta   109.40645351
_cell_angle_gamma   90.00000000
_symmetry_Int_Tables_number   11
_chemical_formula_structural   Sr
_chemical_formula_sum   Sr4
_cell_volume   114.43212169
_cell_formula_units_Z   4
loop_
 _symmetry_equiv_pos_site_id
 _symmetry_equiv_pos_as_xyz
  1  'x, y, z'
  2  '-x, -y, -z'
  3  '-x, y+1/2, -z'
  4  'x, -y+1/2, z'
loop_
 _atom_site_type_symbol
 _atom_site_label
 _atom_site_symmetry_multiplicity
 _atom_site_fract_x
 _atom_site_fract_y
 _atom_site_fract_z
 _atom_site_occupancy
  Sr  Sr0  2  0.157575  0.750000  0.755186  1
  Sr  Sr1  2  0.323844  0.750000  0.256821  1
