# generated using pymatgen
data_Sr
_symmetry_space_group_name_H-M   P1
_cell_length_a   5.43659703
_cell_length_b   5.62863539
_cell_length_c   8.44527961
_cell_angle_alpha   96.92783535
_cell_angle_beta   96.67941477
_cell_angle_gamma   90.96958046
_symmetry_Int_Tables_number   1
_chemical_formula_structural   Sr
_chemical_formula_sum   Sr13
_cell_volume   254.67710265
_cell_formula_units_Z   13
loop_
 _symmetry_equiv_pos_site_id
 _symmetry_equiv_pos_as_xyz
  1  'x, y, z'
loop_
 _atom_site_type_symbol
 _atom_site_label
 _atom_site_symmetry_multiplicity
 _atom_site_fract_x
 _atom_site_fract_y
 _atom_site_fract_z
 _atom_site_occupancy
  Sr  Sr0  1  0.075713  0.045046  0.073626  1
  Sr  Sr1  1  0.107509  0.744562  0.325772  1
  Sr  Sr2  1  0.129886  0.695646  0.649729  1
  Sr  Sr3  1  0.172591  0.589680  0.954629  1
  Sr  Sr4  1  0.316159  0.220724  0.525663  1
  Sr  Sr5  1  0.415166  0.374866  0.239227  1
  Sr  Sr6  1  0.501273  0.008550  0.820221  1
  Sr  Sr7  1  0.606744  0.860279  0.439906  1
  Sr  Sr8  1  0.610835  0.888845  0.115754  1
  Sr  Sr9  1  0.656772  0.543872  0.671830  1
  Sr  Sr10  1  0.688061  0.438236  0.991539  1
  Sr  Sr11  1  0.866066  0.296519  0.374402  1
  Sr  Sr12  1  0.972526  0.147715  0.760062  1
