# generated using pymatgen
data_Sr
_symmetry_space_group_name_H-M   P1
_cell_length_a   4.81784603
_cell_length_b   5.75695444
_cell_length_c   6.26109846
_cell_angle_alpha   98.52513389
_cell_angle_beta   92.00551061
_cell_angle_gamma   107.23958377
_symmetry_Int_Tables_number   1
_chemical_formula_structural   Sr
_chemical_formula_sum   Sr7
_cell_volume   163.45048114
_cell_formula_units_Z   7
loop_
 _symmetry_equiv_pos_site_id
 _symmetry_equiv_pos_as_xyz
  1  'x, y, z'
loop_
 _atom_site_type_symbol
 _atom_site_label
 _atom_site_symmetry_multiplicity
 _atom_site_fract_x
 _atom_site_fract_y
 _atom_site_fract_z
 _atom_site_occupancy
  Sr  Sr0  1  0.046576  0.491950  0.716518  1
  Sr  Sr1  1  0.243125  0.835645  0.264299  1
  Sr  Sr2  1  0.336908  0.101793  0.792923  1
  Sr  Sr3  1  0.458503  0.452492  0.424171  1
  Sr  Sr4  1  0.664127  0.550010  0.033894  1
  Sr  Sr5  1  0.772458  0.893631  0.666893  1
  Sr  Sr6  1  0.874380  0.160018  0.196398  1
