# generated using pymatgen
data_Sr
_symmetry_space_group_name_H-M   P1
_cell_length_a   5.69263054
_cell_length_b   5.84664826
_cell_length_c   10.48441524
_cell_angle_alpha   83.51480390
_cell_angle_beta   83.30806846
_cell_angle_gamma   87.62499212
_symmetry_Int_Tables_number   1
_chemical_formula_structural   Sr
_chemical_formula_sum   Sr16
_cell_volume   344.21429772
_cell_formula_units_Z   16
loop_
 _symmetry_equiv_pos_site_id
 _symmetry_equiv_pos_as_xyz
  1  'x, y, z'
loop_
 _atom_site_type_symbol
 _atom_site_label
 _atom_site_symmetry_multiplicity
 _atom_site_fract_x
 _atom_site_fract_y
 _atom_site_fract_z
 _atom_site_occupancy
  Sr  Sr0  1  0.119993  0.829323  0.819512  1
  Sr  Sr1  1  0.129295  0.235988  0.586212  1
  Sr  Sr2  1  0.144679  0.448285  0.325522  1
  Sr  Sr3  1  0.196057  0.024129  0.249978  1
  Sr  Sr4  1  0.206900  0.325474  0.840123  1
  Sr  Sr5  1  0.434235  0.969176  0.008562  1
  Sr  Sr6  1  0.451912  0.747707  0.598843  1
  Sr  Sr7  1  0.513286  0.506859  0.027333  1
  Sr  Sr8  1  0.608829  0.567932  0.288176  1
  Sr  Sr9  1  0.625703  0.314647  0.527862  1
  Sr  Sr10  1  0.648285  0.013864  0.344236  1
  Sr  Sr11  1  0.676389  0.042119  0.762402  1
  Sr  Sr12  1  0.742869  0.520307  0.784997  1
  Sr  Sr13  1  0.852954  0.136847  0.063145  1
  Sr  Sr14  1  0.969950  0.641133  0.077259  1
  Sr  Sr15  1  0.989834  0.768356  0.516607  1
