# generated using pymatgen
data_Sr
_symmetry_space_group_name_H-M   P1
_cell_length_a   5.50980888
_cell_length_b   5.79389076
_cell_length_c   7.76546180
_cell_angle_alpha   75.16023375
_cell_angle_beta   86.34412954
_cell_angle_gamma   64.52733346
_symmetry_Int_Tables_number   1
_chemical_formula_structural   Sr
_chemical_formula_sum   Sr10
_cell_volume   216.03003026
_cell_formula_units_Z   10
loop_
 _symmetry_equiv_pos_site_id
 _symmetry_equiv_pos_as_xyz
  1  'x, y, z'
loop_
 _atom_site_type_symbol
 _atom_site_label
 _atom_site_symmetry_multiplicity
 _atom_site_fract_x
 _atom_site_fract_y
 _atom_site_fract_z
 _atom_site_occupancy
  Sr  Sr0  1  0.070443  0.918143  0.985552  1
  Sr  Sr1  1  0.095485  0.109083  0.521133  1
  Sr  Sr2  1  0.395061  0.590800  0.761696  1
  Sr  Sr3  1  0.406225  0.748966  0.305013  1
  Sr  Sr4  1  0.531804  0.229431  0.539530  1
  Sr  Sr5  1  0.549854  0.261301  0.148211  1
  Sr  Sr6  1  0.574681  0.945850  0.891672  1
  Sr  Sr7  1  0.877754  0.747086  0.429715  1
  Sr  Sr8  1  0.947543  0.440623  0.783449  1
  Sr  Sr9  1  0.991220  0.431515  0.159979  1
