# generated using pymatgen
data_Sr
_symmetry_space_group_name_H-M   P-1
_cell_length_a   3.76249542
_cell_length_b   5.79475462
_cell_length_c   5.98378232
_cell_angle_alpha   112.04949345
_cell_angle_beta   106.28458928
_cell_angle_gamma   100.91501516
_symmetry_Int_Tables_number   2
_chemical_formula_structural   Sr
_chemical_formula_sum   Sr4
_cell_volume   109.52046397
_cell_formula_units_Z   4
loop_
 _symmetry_equiv_pos_site_id
 _symmetry_equiv_pos_as_xyz
  1  'x, y, z'
  2  '-x, -y, -z'
loop_
 _atom_site_type_symbol
 _atom_site_label
 _atom_site_symmetry_multiplicity
 _atom_site_fract_x
 _atom_site_fract_y
 _atom_site_fract_z
 _atom_site_occupancy
  Sr  Sr0  2  0.025258  0.299025  0.232219  1
  Sr  Sr1  2  0.468800  0.160929  0.757843  1
