# generated using pymatgen
data_Sr
_symmetry_space_group_name_H-M   P1
_cell_length_a   5.79446777
_cell_length_b   7.89475808
_cell_length_c   9.31356016
_cell_angle_alpha   78.20108600
_cell_angle_beta   73.82545374
_cell_angle_gamma   74.75376709
_symmetry_Int_Tables_number   1
_chemical_formula_structural   Sr
_chemical_formula_sum   Sr18
_cell_volume   390.81241615
_cell_formula_units_Z   18
loop_
 _symmetry_equiv_pos_site_id
 _symmetry_equiv_pos_as_xyz
  1  'x, y, z'
loop_
 _atom_site_type_symbol
 _atom_site_label
 _atom_site_symmetry_multiplicity
 _atom_site_fract_x
 _atom_site_fract_y
 _atom_site_fract_z
 _atom_site_occupancy
  Sr  Sr0  1  0.134338  0.064486  0.906376  1
  Sr  Sr1  1  0.136757  0.068299  0.237205  1
  Sr  Sr2  1  0.152856  0.053087  0.569883  1
  Sr  Sr3  1  0.244037  0.440552  0.995419  1
  Sr  Sr4  1  0.267489  0.440086  0.329587  1
  Sr  Sr5  1  0.292325  0.443840  0.657334  1
  Sr  Sr6  1  0.491319  0.718527  0.395301  1
  Sr  Sr7  1  0.511048  0.708085  0.765150  1
  Sr  Sr8  1  0.551108  0.719876  0.073010  1
  Sr  Sr9  1  0.557346  0.089845  0.992954  1
  Sr  Sr10  1  0.568994  0.077118  0.328363  1
  Sr  Sr11  1  0.569093  0.078288  0.664744  1
  Sr  Sr12  1  0.771909  0.368485  0.081896  1
  Sr  Sr13  1  0.812230  0.359235  0.407958  1
  Sr  Sr14  1  0.828445  0.363700  0.743884  1
  Sr  Sr15  1  0.939036  0.750079  0.485484  1
  Sr  Sr16  1  0.976310  0.762438  0.808955  1
  Sr  Sr17  1  0.993865  0.763332  0.142990  1
