# generated using pymatgen
data_Sr
_symmetry_space_group_name_H-M   P-1
_cell_length_a   5.69892176
_cell_length_b   6.11592494
_cell_length_c   6.17225527
_cell_angle_alpha   94.44373887
_cell_angle_beta   115.50078888
_cell_angle_gamma   117.68232251
_symmetry_Int_Tables_number   2
_chemical_formula_structural   Sr
_chemical_formula_sum   Sr7
_cell_volume   161.25037517
_cell_formula_units_Z   7
loop_
 _symmetry_equiv_pos_site_id
 _symmetry_equiv_pos_as_xyz
  1  'x, y, z'
  2  '-x, -y, -z'
loop_
 _atom_site_type_symbol
 _atom_site_label
 _atom_site_symmetry_multiplicity
 _atom_site_fract_x
 _atom_site_fract_y
 _atom_site_fract_z
 _atom_site_occupancy
  Sr  Sr0  2  0.219465  0.784683  0.110631  1
  Sr  Sr1  2  0.231186  0.161156  0.459237  1
  Sr  Sr2  2  0.415662  0.292606  0.087633  1
  Sr  Sr3  1  0.000000  0.500000  0.500000  1
