# generated using pymatgen
data_Sr
_symmetry_space_group_name_H-M   P1
_cell_length_a   4.46355518
_cell_length_b   5.77537222
_cell_length_c   6.35907573
_cell_angle_alpha   95.86356285
_cell_angle_beta   93.11998206
_cell_angle_gamma   105.43722348
_symmetry_Int_Tables_number   1
_chemical_formula_structural   Sr
_chemical_formula_sum   Sr7
_cell_volume   156.61733030
_cell_formula_units_Z   7
loop_
 _symmetry_equiv_pos_site_id
 _symmetry_equiv_pos_as_xyz
  1  'x, y, z'
loop_
 _atom_site_type_symbol
 _atom_site_label
 _atom_site_symmetry_multiplicity
 _atom_site_fract_x
 _atom_site_fract_y
 _atom_site_fract_z
 _atom_site_occupancy
  Sr  Sr0  1  0.155329  0.829465  0.538508  1
  Sr  Sr1  1  0.242364  0.109536  0.091589  1
  Sr  Sr2  1  0.333441  0.407215  0.660389  1
  Sr  Sr3  1  0.589133  0.530582  0.311284  1
  Sr  Sr4  1  0.646836  0.846228  0.912811  1
  Sr  Sr5  1  0.756296  0.117098  0.452908  1
  Sr  Sr6  1  0.965266  0.481278  0.986483  1
