# generated using pymatgen
data_Sr
_symmetry_space_group_name_H-M   P-1
_cell_length_a   3.95812772
_cell_length_b   6.11414905
_cell_length_c   7.82555516
_cell_angle_alpha   67.04890687
_cell_angle_beta   83.92224709
_cell_angle_gamma   77.23960702
_symmetry_Int_Tables_number   2
_chemical_formula_structural   Sr
_chemical_formula_sum   Sr6
_cell_volume   170.04287577
_cell_formula_units_Z   6
loop_
 _symmetry_equiv_pos_site_id
 _symmetry_equiv_pos_as_xyz
  1  'x, y, z'
  2  '-x, -y, -z'
loop_
 _atom_site_type_symbol
 _atom_site_label
 _atom_site_symmetry_multiplicity
 _atom_site_fract_x
 _atom_site_fract_y
 _atom_site_fract_z
 _atom_site_occupancy
  Sr  Sr0  2  0.014190  0.296113  0.918363  1
  Sr  Sr1  2  0.159951  0.694097  0.489379  1
  Sr  Sr2  2  0.489266  0.870170  0.753550  1
