# generated using pymatgen
data_Sr
_symmetry_space_group_name_H-M   P1
_cell_length_a   5.75562773
_cell_length_b   6.02625662
_cell_length_c   8.02089415
_cell_angle_alpha   105.04306343
_cell_angle_beta   96.20101766
_cell_angle_gamma   118.36804285
_symmetry_Int_Tables_number   1
_chemical_formula_structural   Sr
_chemical_formula_sum   Sr10
_cell_volume   227.47750740
_cell_formula_units_Z   10
loop_
 _symmetry_equiv_pos_site_id
 _symmetry_equiv_pos_as_xyz
  1  'x, y, z'
loop_
 _atom_site_type_symbol
 _atom_site_label
 _atom_site_symmetry_multiplicity
 _atom_site_fract_x
 _atom_site_fract_y
 _atom_site_fract_z
 _atom_site_occupancy
  Sr  Sr0  1  0.082377  0.443234  0.763185  1
  Sr  Sr1  1  0.147431  0.931787  0.051052  1
  Sr  Sr2  1  0.300296  0.497868  0.131655  1
  Sr  Sr3  1  0.349790  0.791873  0.556228  1
  Sr  Sr4  1  0.404591  0.293131  0.445183  1
  Sr  Sr5  1  0.574709  0.381747  0.834874  1
  Sr  Sr6  1  0.657108  0.020374  0.979963  1
  Sr  Sr7  1  0.799934  0.074277  0.367317  1
  Sr  Sr8  1  0.869006  0.577590  0.272065  1
  Sr  Sr9  1  0.916982  0.879679  0.686293  1
