# generated using pymatgen
data_Sr
_symmetry_space_group_name_H-M   P1
_cell_length_a   5.77957300
_cell_length_b   6.03485520
_cell_length_c   6.37632075
_cell_angle_alpha   78.31731115
_cell_angle_beta   86.95996189
_cell_angle_gamma   62.15520927
_symmetry_Int_Tables_number   1
_chemical_formula_structural   Sr
_chemical_formula_sum   Sr9
_cell_volume   192.35319363
_cell_formula_units_Z   9
loop_
 _symmetry_equiv_pos_site_id
 _symmetry_equiv_pos_as_xyz
  1  'x, y, z'
loop_
 _atom_site_type_symbol
 _atom_site_label
 _atom_site_symmetry_multiplicity
 _atom_site_fract_x
 _atom_site_fract_y
 _atom_site_fract_z
 _atom_site_occupancy
  Sr  Sr0  1  0.063270  0.218879  0.245851  1
  Sr  Sr1  1  0.222390  0.749706  0.135133  1
  Sr  Sr2  1  0.236184  0.492937  0.685081  1
  Sr  Sr3  1  0.316759  0.924061  0.627524  1
  Sr  Sr4  1  0.505726  0.238010  0.111045  1
  Sr  Sr5  1  0.680928  0.149248  0.520540  1
  Sr  Sr6  1  0.695722  0.796635  0.951199  1
  Sr  Sr7  1  0.826706  0.664463  0.404526  1
  Sr  Sr8  1  0.867527  0.311645  0.821623  1
