# generated using pymatgen
data_Sr
_symmetry_space_group_name_H-M   P1
_cell_length_a   5.43158130
_cell_length_b   5.80842663
_cell_length_c   8.59568861
_cell_angle_alpha   81.12522955
_cell_angle_beta   72.96497716
_cell_angle_gamma   89.80929293
_symmetry_Int_Tables_number   1
_chemical_formula_structural   Sr
_chemical_formula_sum   Sr12
_cell_volume   255.93094394
_cell_formula_units_Z   12
loop_
 _symmetry_equiv_pos_site_id
 _symmetry_equiv_pos_as_xyz
  1  'x, y, z'
loop_
 _atom_site_type_symbol
 _atom_site_label
 _atom_site_symmetry_multiplicity
 _atom_site_fract_x
 _atom_site_fract_y
 _atom_site_fract_z
 _atom_site_occupancy
  Sr  Sr0  1  0.017109  0.705502  0.124342  1
  Sr  Sr1  1  0.032719  0.185185  0.190251  1
  Sr  Sr2  1  0.128316  0.115496  0.826956  1
  Sr  Sr3  1  0.246768  0.603128  0.813782  1
  Sr  Sr4  1  0.273315  0.912266  0.527590  1
  Sr  Sr5  1  0.399235  0.389694  0.492480  1
  Sr  Sr6  1  0.490230  0.812258  0.221535  1
  Sr  Sr7  1  0.550873  0.319882  0.148069  1
  Sr  Sr8  1  0.611140  0.996917  0.877099  1
  Sr  Sr9  1  0.749825  0.510171  0.800306  1
  Sr  Sr10  1  0.781222  0.998621  0.528432  1
  Sr  Sr11  1  0.913844  0.514101  0.461914  1
