# generated using pymatgen
data_Sr
_symmetry_space_group_name_H-M   P1
_cell_length_a   5.96231502
_cell_length_b   6.02399466
_cell_length_c   6.18884609
_cell_angle_alpha   91.06612170
_cell_angle_beta   96.09893858
_cell_angle_gamma   113.11234864
_symmetry_Int_Tables_number   1
_chemical_formula_structural   Sr
_chemical_formula_sum   Sr9
_cell_volume   202.84355293
_cell_formula_units_Z   9
loop_
 _symmetry_equiv_pos_site_id
 _symmetry_equiv_pos_as_xyz
  1  'x, y, z'
loop_
 _atom_site_type_symbol
 _atom_site_label
 _atom_site_symmetry_multiplicity
 _atom_site_fract_x
 _atom_site_fract_y
 _atom_site_fract_z
 _atom_site_occupancy
  Sr  Sr0  1  0.111950  0.669903  0.614724  1
  Sr  Sr1  1  0.135299  0.256107  0.789706  1
  Sr  Sr2  1  0.364451  0.538061  0.210443  1
  Sr  Sr3  1  0.365940  0.932923  0.994847  1
  Sr  Sr4  1  0.383332  0.161886  0.420403  1
  Sr  Sr5  1  0.683126  0.898181  0.614377  1
  Sr  Sr6  1  0.689210  0.453777  0.830287  1
  Sr  Sr7  1  0.859298  0.354936  0.250528  1
  Sr  Sr8  1  0.875438  0.884347  0.174475  1
