# generated using pymatgen
data_Sr
_symmetry_space_group_name_H-M   P-1
_cell_length_a   3.85091926
_cell_length_b   4.57463045
_cell_length_c   5.97183037
_cell_angle_alpha   88.62373954
_cell_angle_beta   82.71899181
_cell_angle_gamma   88.15368629
_symmetry_Int_Tables_number   2
_chemical_formula_structural   Sr
_chemical_formula_sum   Sr4
_cell_volume   104.27937767
_cell_formula_units_Z   4
loop_
 _symmetry_equiv_pos_site_id
 _symmetry_equiv_pos_as_xyz
  1  'x, y, z'
  2  '-x, -y, -z'
loop_
 _atom_site_type_symbol
 _atom_site_label
 _atom_site_symmetry_multiplicity
 _atom_site_fract_x
 _atom_site_fract_y
 _atom_site_fract_z
 _atom_site_occupancy
  Sr  Sr0  2  0.034535  0.216521  0.197803  1
  Sr  Sr1  2  0.429161  0.746704  0.327576  1
