# generated using pymatgen
data_Sr
_symmetry_space_group_name_H-M   P1
_cell_length_a   5.78578419
_cell_length_b   8.13135187
_cell_length_c   8.20617068
_cell_angle_alpha   116.94425937
_cell_angle_beta   100.80863991
_cell_angle_gamma   101.78867682
_symmetry_Int_Tables_number   1
_chemical_formula_structural   Sr
_chemical_formula_sum   Sr15
_cell_volume   319.07461017
_cell_formula_units_Z   15
loop_
 _symmetry_equiv_pos_site_id
 _symmetry_equiv_pos_as_xyz
  1  'x, y, z'
loop_
 _atom_site_type_symbol
 _atom_site_label
 _atom_site_symmetry_multiplicity
 _atom_site_fract_x
 _atom_site_fract_y
 _atom_site_fract_z
 _atom_site_occupancy
  Sr  Sr0  1  0.012321  0.689877  0.889030  1
  Sr  Sr1  1  0.237294  0.610075  0.576453  1
  Sr  Sr2  1  0.244160  0.013575  0.687611  1
  Sr  Sr3  1  0.249068  0.114771  0.075378  1
  Sr  Sr4  1  0.259986  0.506721  0.179379  1
  Sr  Sr5  1  0.511552  0.305000  0.481749  1
  Sr  Sr6  1  0.512067  0.436955  0.860761  1
  Sr  Sr7  1  0.532623  0.830703  0.037539  1
  Sr  Sr8  1  0.536452  0.931577  0.416246  1
  Sr  Sr9  1  0.737762  0.002356  0.846721  1
  Sr  Sr10  1  0.745244  0.353232  0.134018  1
  Sr  Sr11  1  0.758297  0.664920  0.506461  1
  Sr  Sr12  1  0.962956  0.288079  0.745246  1
  Sr  Sr13  1  0.963772  0.189458  0.358446  1
  Sr  Sr14  1  0.991355  0.802728  0.261708  1
