# generated using pymatgen
data_Sr
_symmetry_space_group_name_H-M   P1
_cell_length_a   5.87543894
_cell_length_b   5.95619094
_cell_length_c   8.18350165
_cell_angle_alpha   102.89739019
_cell_angle_beta   98.24118840
_cell_angle_gamma   113.37790216
_symmetry_Int_Tables_number   1
_chemical_formula_structural   Sr
_chemical_formula_sum   Sr11
_cell_volume   247.48528183
_cell_formula_units_Z   11
loop_
 _symmetry_equiv_pos_site_id
 _symmetry_equiv_pos_as_xyz
  1  'x, y, z'
loop_
 _atom_site_type_symbol
 _atom_site_label
 _atom_site_symmetry_multiplicity
 _atom_site_fract_x
 _atom_site_fract_y
 _atom_site_fract_z
 _atom_site_occupancy
  Sr  Sr0  1  0.090645  0.500326  0.422665  1
  Sr  Sr1  1  0.168522  0.044293  0.824106  1
  Sr  Sr2  1  0.175205  0.470190  0.098117  1
  Sr  Sr3  1  0.196779  0.082128  0.482756  1
  Sr  Sr4  1  0.340021  0.588714  0.793937  1
  Sr  Sr5  1  0.493854  0.000094  0.205663  1
  Sr  Sr6  1  0.627872  0.516052  0.290343  1
  Sr  Sr7  1  0.654660  0.951377  0.551284  1
  Sr  Sr8  1  0.677696  0.188153  0.919371  1
  Sr  Sr9  1  0.781990  0.486868  0.698432  1
  Sr  Sr10  1  0.889087  0.856811  0.094994  1
