# generated using pymatgen
data_Sr
_symmetry_space_group_name_H-M   P1
_cell_length_a   5.38970036
_cell_length_b   6.60025342
_cell_length_c   7.88980669
_cell_angle_alpha   81.29464817
_cell_angle_beta   76.08766907
_cell_angle_gamma   81.64380711
_symmetry_Int_Tables_number   1
_chemical_formula_structural   Sr
_chemical_formula_sum   Sr13
_cell_volume   267.55392244
_cell_formula_units_Z   13
loop_
 _symmetry_equiv_pos_site_id
 _symmetry_equiv_pos_as_xyz
  1  'x, y, z'
loop_
 _atom_site_type_symbol
 _atom_site_label
 _atom_site_symmetry_multiplicity
 _atom_site_fract_x
 _atom_site_fract_y
 _atom_site_fract_z
 _atom_site_occupancy
  Sr  Sr0  1  0.003439  0.759974  0.430000  1
  Sr  Sr1  1  0.019407  0.876567  0.751919  1
  Sr  Sr2  1  0.022139  0.443959  0.954162  1
  Sr  Sr3  1  0.024651  0.190724  0.328968  1
  Sr  Sr4  1  0.140879  0.351281  0.612575  1
  Sr  Sr5  1  0.246375  0.990884  0.005404  1
  Sr  Sr6  1  0.313073  0.570892  0.156939  1
  Sr  Sr7  1  0.475780  0.971056  0.486091  1
  Sr  Sr8  1  0.576566  0.629446  0.780544  1
  Sr  Sr9  1  0.609793  0.186904  0.749912  1
  Sr  Sr10  1  0.619825  0.490476  0.426472  1
  Sr  Sr11  1  0.620801  0.201643  0.132565  1
  Sr  Sr12  1  0.735280  0.781847  0.130120  1
