# generated using pymatgen
data_Sr
_symmetry_space_group_name_H-M   P1
_cell_length_a   6.03563760
_cell_length_b   6.15681509
_cell_length_c   6.34506828
_cell_angle_alpha   62.80957713
_cell_angle_beta   84.62668678
_cell_angle_gamma   82.87211955
_symmetry_Int_Tables_number   1
_chemical_formula_structural   Sr
_chemical_formula_sum   Sr8
_cell_volume   207.92551742
_cell_formula_units_Z   8
loop_
 _symmetry_equiv_pos_site_id
 _symmetry_equiv_pos_as_xyz
  1  'x, y, z'
loop_
 _atom_site_type_symbol
 _atom_site_label
 _atom_site_symmetry_multiplicity
 _atom_site_fract_x
 _atom_site_fract_y
 _atom_site_fract_z
 _atom_site_occupancy
  Sr  Sr0  1  0.123787  0.321335  0.127542  1
  Sr  Sr1  1  0.218255  0.865790  0.111629  1
  Sr  Sr2  1  0.318966  0.577308  0.611122  1
  Sr  Sr3  1  0.448300  0.118862  0.598358  1
  Sr  Sr4  1  0.649178  0.511029  0.007333  1
  Sr  Sr5  1  0.670323  0.957648  0.211981  1
  Sr  Sr6  1  0.860627  0.455857  0.547521  1
  Sr  Sr7  1  0.948437  0.938760  0.694375  1
