# generated using pymatgen
data_Sr
_symmetry_space_group_name_H-M   P1
_cell_length_a   3.38467903
_cell_length_b   8.44290675
_cell_length_c   8.71265822
_cell_angle_alpha   104.92904467
_cell_angle_beta   90.11573922
_cell_angle_gamma   90.85949722
_symmetry_Int_Tables_number   1
_chemical_formula_structural   Sr
_chemical_formula_sum   Sr10
_cell_volume   240.54191882
_cell_formula_units_Z   10
loop_
 _symmetry_equiv_pos_site_id
 _symmetry_equiv_pos_as_xyz
  1  'x, y, z'
loop_
 _atom_site_type_symbol
 _atom_site_label
 _atom_site_symmetry_multiplicity
 _atom_site_fract_x
 _atom_site_fract_y
 _atom_site_fract_z
 _atom_site_occupancy
  Sr  Sr0  1  0.003721  0.371748  0.700373  1
  Sr  Sr1  1  0.220367  0.913030  0.814374  1
  Sr  Sr2  1  0.418892  0.867258  0.331714  1
  Sr  Sr3  1  0.441418  0.266277  0.356322  1
  Sr  Sr4  1  0.468398  0.272905  0.971603  1
  Sr  Sr5  1  0.500202  0.650110  0.958419  1
  Sr  Sr6  1  0.504045  0.636253  0.575135  1
  Sr  Sr7  1  0.880284  0.037903  0.595607  1
  Sr  Sr8  1  0.898136  0.005724  0.107034  1
  Sr  Sr9  1  0.967502  0.541275  0.241899  1
