# generated using pymatgen
data_Sr
_symmetry_space_group_name_H-M   P1
_cell_length_a   5.85100373
_cell_length_b   5.86767493
_cell_length_c   7.70445564
_cell_angle_alpha   106.83300568
_cell_angle_beta   110.33671492
_cell_angle_gamma   90.03796209
_symmetry_Int_Tables_number   1
_chemical_formula_structural   Sr
_chemical_formula_sum   Sr11
_cell_volume   235.87596426
_cell_formula_units_Z   11
loop_
 _symmetry_equiv_pos_site_id
 _symmetry_equiv_pos_as_xyz
  1  'x, y, z'
loop_
 _atom_site_type_symbol
 _atom_site_label
 _atom_site_symmetry_multiplicity
 _atom_site_fract_x
 _atom_site_fract_y
 _atom_site_fract_z
 _atom_site_occupancy
  Sr  Sr0  1  0.145988  0.238365  0.053206  1
  Sr  Sr1  1  0.174394  0.036694  0.547408  1
  Sr  Sr2  1  0.352215  0.774772  0.838716  1
  Sr  Sr3  1  0.440479  0.345357  0.465907  1
  Sr  Sr4  1  0.482801  0.738629  0.290390  1
  Sr  Sr5  1  0.560295  0.349793  0.929148  1
  Sr  Sr6  1  0.702040  0.096602  0.217200  1
  Sr  Sr7  1  0.748436  0.917334  0.698341  1
  Sr  Sr8  1  0.942799  0.400634  0.698222  1
  Sr  Sr9  1  0.967466  0.550971  0.370725  1
  Sr  Sr10  1  0.983324  0.767547  0.066468  1
