# generated using pymatgen
data_Sr
_symmetry_space_group_name_H-M   P1
_cell_length_a   5.71791258
_cell_length_b   6.30281334
_cell_length_c   8.21917589
_cell_angle_alpha   112.08221567
_cell_angle_beta   93.28908806
_cell_angle_gamma   105.51857489
_symmetry_Int_Tables_number   1
_chemical_formula_structural   Sr
_chemical_formula_sum   Sr11
_cell_volume   260.30383200
_cell_formula_units_Z   11
loop_
 _symmetry_equiv_pos_site_id
 _symmetry_equiv_pos_as_xyz
  1  'x, y, z'
loop_
 _atom_site_type_symbol
 _atom_site_label
 _atom_site_symmetry_multiplicity
 _atom_site_fract_x
 _atom_site_fract_y
 _atom_site_fract_z
 _atom_site_occupancy
  Sr  Sr0  1  0.022059  0.676980  0.664723  1
  Sr  Sr1  1  0.167136  0.663757  0.034124  1
  Sr  Sr2  1  0.228033  0.191994  0.880982  1
  Sr  Sr3  1  0.414878  0.180041  0.242669  1
  Sr  Sr4  1  0.434586  0.825439  0.427683  1
  Sr  Sr5  1  0.473020  0.519574  0.623056  1
  Sr  Sr6  1  0.698861  0.251059  0.758116  1
  Sr  Sr7  1  0.699579  0.929930  0.952659  1
  Sr  Sr8  1  0.718613  0.630240  0.156078  1
  Sr  Sr9  1  0.957597  0.335150  0.282788  1
  Sr  Sr10  1  0.987867  0.036100  0.470708  1
