# generated using pymatgen
data_Sr
_symmetry_space_group_name_H-M   P1
_cell_length_a   5.95066201
_cell_length_b   6.24436695
_cell_length_c   7.37501791
_cell_angle_alpha   99.60699396
_cell_angle_beta   105.09558164
_cell_angle_gamma   95.47871697
_symmetry_Int_Tables_number   1
_chemical_formula_structural   Sr
_chemical_formula_sum   Sr11
_cell_volume   258.08119570
_cell_formula_units_Z   11
loop_
 _symmetry_equiv_pos_site_id
 _symmetry_equiv_pos_as_xyz
  1  'x, y, z'
loop_
 _atom_site_type_symbol
 _atom_site_label
 _atom_site_symmetry_multiplicity
 _atom_site_fract_x
 _atom_site_fract_y
 _atom_site_fract_z
 _atom_site_occupancy
  Sr  Sr0  1  0.167634  0.277971  0.408351  1
  Sr  Sr1  1  0.195180  0.857681  0.194302  1
  Sr  Sr2  1  0.214937  0.069115  0.790788  1
  Sr  Sr3  1  0.382550  0.592022  0.881892  1
  Sr  Sr4  1  0.424743  0.727445  0.519065  1
  Sr  Sr5  1  0.537139  0.366447  0.183160  1
  Sr  Sr6  1  0.661701  0.256442  0.619008  1
  Sr  Sr7  1  0.732141  0.947548  0.311258  1
  Sr  Sr8  1  0.765919  0.962562  0.917496  1
  Sr  Sr9  1  0.923665  0.623252  0.550690  1
  Sr  Sr10  1  0.942424  0.435951  0.001270  1
