# generated using pymatgen
data_Sr
_symmetry_space_group_name_H-M   P1
_cell_length_a   5.78879897
_cell_length_b   5.86705186
_cell_length_c   11.00104693
_cell_angle_alpha   75.90596298
_cell_angle_beta   76.08408885
_cell_angle_gamma   88.60071330
_symmetry_Int_Tables_number   1
_chemical_formula_structural   Sr
_chemical_formula_sum   Sr16
_cell_volume   351.51583691
_cell_formula_units_Z   16
loop_
 _symmetry_equiv_pos_site_id
 _symmetry_equiv_pos_as_xyz
  1  'x, y, z'
loop_
 _atom_site_type_symbol
 _atom_site_label
 _atom_site_symmetry_multiplicity
 _atom_site_fract_x
 _atom_site_fract_y
 _atom_site_fract_z
 _atom_site_occupancy
  Sr  Sr0  1  0.004393  0.039460  0.522871  1
  Sr  Sr1  1  0.037979  0.564730  0.460208  1
  Sr  Sr2  1  0.076540  0.292470  0.738406  1
  Sr  Sr3  1  0.202741  0.796115  0.034212  1
  Sr  Sr4  1  0.223091  0.796331  0.776188  1
  Sr  Sr5  1  0.297451  0.302182  0.968955  1
  Sr  Sr6  1  0.353273  0.366946  0.228890  1
  Sr  Sr7  1  0.486948  0.877864  0.254238  1
  Sr  Sr8  1  0.508361  0.614182  0.531351  1
  Sr  Sr9  1  0.510039  0.123081  0.482969  1
  Sr  Sr10  1  0.592448  0.184368  0.731829  1
  Sr  Sr11  1  0.721462  0.885203  0.982521  1
  Sr  Sr12  1  0.722283  0.677717  0.754605  1
  Sr  Sr13  1  0.787158  0.367497  0.007101  1
  Sr  Sr14  1  0.820476  0.497759  0.253727  1
  Sr  Sr15  1  0.960155  0.031073  0.256923  1
