# generated using pymatgen
data_Sr
_symmetry_space_group_name_H-M   P1
_cell_length_a   5.67289890
_cell_length_b   5.68952960
_cell_length_c   10.27203850
_cell_angle_alpha   74.47777530
_cell_angle_beta   84.62319805
_cell_angle_gamma   88.15364422
_symmetry_Int_Tables_number   1
_chemical_formula_structural   Sr
_chemical_formula_sum   Sr15
_cell_volume   318.03480395
_cell_formula_units_Z   15
loop_
 _symmetry_equiv_pos_site_id
 _symmetry_equiv_pos_as_xyz
  1  'x, y, z'
loop_
 _atom_site_type_symbol
 _atom_site_label
 _atom_site_symmetry_multiplicity
 _atom_site_fract_x
 _atom_site_fract_y
 _atom_site_fract_z
 _atom_site_occupancy
  Sr  Sr0  1  0.072587  0.579677  0.624487  1
  Sr  Sr1  1  0.122782  0.452425  0.146509  1
  Sr  Sr2  1  0.222327  0.953509  0.150414  1
  Sr  Sr3  1  0.277406  0.992231  0.431702  1
  Sr  Sr4  1  0.359731  0.805328  0.892414  1
  Sr  Sr5  1  0.392291  0.535729  0.364697  1
  Sr  Sr6  1  0.425245  0.305640  0.890970  1
  Sr  Sr7  1  0.522569  0.194576  0.635760  1
  Sr  Sr8  1  0.584047  0.692312  0.647653  1
  Sr  Sr9  1  0.629751  0.334545  0.161827  1
  Sr  Sr10  1  0.757929  0.856404  0.038948  1
  Sr  Sr11  1  0.788881  0.882426  0.337226  1
  Sr  Sr12  1  0.877253  0.357866  0.419595  1
  Sr  Sr13  1  0.918173  0.397731  0.901171  1
  Sr  Sr14  1  0.969397  0.008647  0.742175  1
