# generated using pymatgen
data_Sr
_symmetry_space_group_name_H-M   P1
_cell_length_a   5.77481841
_cell_length_b   8.15031552
_cell_length_c   8.19086940
_cell_angle_alpha   116.69747616
_cell_angle_beta   100.56586539
_cell_angle_gamma   100.70507150
_symmetry_Int_Tables_number   1
_chemical_formula_structural   Sr
_chemical_formula_sum   Sr15
_cell_volume   322.41121698
_cell_formula_units_Z   15
loop_
 _symmetry_equiv_pos_site_id
 _symmetry_equiv_pos_as_xyz
  1  'x, y, z'
loop_
 _atom_site_type_symbol
 _atom_site_label
 _atom_site_symmetry_multiplicity
 _atom_site_fract_x
 _atom_site_fract_y
 _atom_site_fract_z
 _atom_site_occupancy
  Sr  Sr0  1  0.110240  0.694398  0.248875  1
  Sr  Sr1  1  0.110796  0.806915  0.632197  1
  Sr  Sr2  1  0.114187  0.308433  0.116326  1
  Sr  Sr3  1  0.123075  0.193112  0.736707  1
  Sr  Sr4  1  0.376372  0.119884  0.447913  1
  Sr  Sr5  1  0.388109  0.019836  0.054613  1
  Sr  Sr6  1  0.395171  0.630696  0.957637  1
  Sr  Sr7  1  0.412705  0.526895  0.563323  1
  Sr  Sr8  1  0.635721  0.448896  0.260728  1
  Sr  Sr9  1  0.655213  0.337874  0.883103  1
  Sr  Sr10  1  0.660047  0.954759  0.763837  1
  Sr  Sr11  1  0.662485  0.841977  0.380463  1
  Sr  Sr12  1  0.890555  0.152877  0.318162  1
  Sr  Sr13  1  0.892643  0.467724  0.666592  1
  Sr  Sr14  1  0.892787  0.815922  0.996406  1
