# generated using pymatgen
data_Sr
_symmetry_space_group_name_H-M   C2/m
_cell_length_a   11.37749263
_cell_length_b   3.46446125
_cell_length_c   10.81483106
_cell_angle_alpha   90.00000000
_cell_angle_beta   114.01467496
_cell_angle_gamma   90.00000000
_symmetry_Int_Tables_number   12
_chemical_formula_structural   Sr
_chemical_formula_sum   Sr16
_cell_volume   389.38806024
_cell_formula_units_Z   16
loop_
 _symmetry_equiv_pos_site_id
 _symmetry_equiv_pos_as_xyz
  1  'x, y, z'
  2  'x, -y, z'
  3  'x+1/2, y+1/2, z'
  4  'x+1/2, -y+1/2, z'
loop_
 _atom_site_type_symbol
 _atom_site_label
 _atom_site_symmetry_multiplicity
 _atom_site_fract_x
 _atom_site_fract_y
 _atom_site_fract_z
 _atom_site_occupancy
  Sr  Sr0  2  0.079793  0.000000  0.904132  1
  Sr  Sr1  2  0.096957  0.500000  0.661037  1
  Sr  Sr2  2  0.135415  0.000000  0.382824  1
  Sr  Sr3  2  0.179253  0.500000  0.140761  1
  Sr  Sr4  2  0.320747  0.000000  0.859239  1
  Sr  Sr5  2  0.345800  0.500000  0.605038  1
  Sr  Sr6  2  0.400006  0.000000  0.356890  1
  Sr  Sr7  2  0.420207  0.500000  0.095868  1
