# generated using pymatgen
data_Sr
_symmetry_space_group_name_H-M   P-1
_cell_length_a   5.94648951
_cell_length_b   6.00484692
_cell_length_c   7.43802121
_cell_angle_alpha   98.83294835
_cell_angle_beta   94.43358367
_cell_angle_gamma   112.86078577
_symmetry_Int_Tables_number   2
_chemical_formula_structural   Sr
_chemical_formula_sum   Sr10
_cell_volume   239.07911316
_cell_formula_units_Z   10
loop_
 _symmetry_equiv_pos_site_id
 _symmetry_equiv_pos_as_xyz
  1  'x, y, z'
  2  '-x, -y, -z'
loop_
 _atom_site_type_symbol
 _atom_site_label
 _atom_site_symmetry_multiplicity
 _atom_site_fract_x
 _atom_site_fract_y
 _atom_site_fract_z
 _atom_site_occupancy
  Sr  Sr0  2  0.128017  0.316474  0.100434  1
  Sr  Sr1  2  0.189210  0.751297  0.633416  1
  Sr  Sr2  2  0.191968  0.892435  0.278317  1
  Sr  Sr3  2  0.352799  0.325572  0.623439  1
  Sr  Sr4  2  0.466611  0.759374  0.999769  1
