# generated using pymatgen
data_Sr
_symmetry_space_group_name_H-M   P-1
_cell_length_a   6.07307587
_cell_length_b   6.08414060
_cell_length_c   8.10724031
_cell_angle_alpha   111.39327219
_cell_angle_beta   107.30756411
_cell_angle_gamma   90.12471308
_symmetry_Int_Tables_number   2
_chemical_formula_structural   Sr
_chemical_formula_sum   Sr11
_cell_volume   264.21644151
_cell_formula_units_Z   11
loop_
 _symmetry_equiv_pos_site_id
 _symmetry_equiv_pos_as_xyz
  1  'x, y, z'
  2  '-x, -y, -z'
loop_
 _atom_site_type_symbol
 _atom_site_label
 _atom_site_symmetry_multiplicity
 _atom_site_fract_x
 _atom_site_fract_y
 _atom_site_fract_z
 _atom_site_occupancy
  Sr  Sr0  2  0.190221  0.414546  0.421145  1
  Sr  Sr1  2  0.200631  0.653585  0.182885  1
  Sr  Sr2  2  0.211761  0.055245  0.959480  1
  Sr  Sr3  2  0.327621  0.497340  0.820142  1
  Sr  Sr4  2  0.479333  0.897937  0.650949  1
  Sr  Sr5  1  0.000000  0.000000  0.500000  1
