# generated using pymatgen
data_Sr
_symmetry_space_group_name_H-M   Cm
_cell_length_a   12.78506127
_cell_length_b   3.41720064
_cell_length_c   7.62564102
_cell_angle_alpha   90.00000000
_cell_angle_beta   94.21198002
_cell_angle_gamma   90.00000000
_symmetry_Int_Tables_number   8
_chemical_formula_structural   Sr
_chemical_formula_sum   Sr14
_cell_volume   332.25773137
_cell_formula_units_Z   14
loop_
 _symmetry_equiv_pos_site_id
 _symmetry_equiv_pos_as_xyz
  1  'x, y, z'
  2  'x, -y, z'
  3  'x+1/2, y+1/2, z'
  4  'x+1/2, -y+1/2, z'
loop_
 _atom_site_type_symbol
 _atom_site_label
 _atom_site_symmetry_multiplicity
 _atom_site_fract_x
 _atom_site_fract_y
 _atom_site_fract_z
 _atom_site_occupancy
  Sr  Sr0  2  0.027061  0.000000  0.605646  1
  Sr  Sr1  2  0.039255  0.000000  0.200202  1
  Sr  Sr2  2  0.199416  0.500000  0.359678  1
  Sr  Sr3  2  0.222137  0.500000  0.946999  1
  Sr  Sr4  2  0.270250  0.000000  0.649245  1
  Sr  Sr5  2  0.373837  0.000000  0.293405  1
  Sr  Sr6  2  0.461988  0.000000  0.898098  1
