# generated using pymatgen
data_Sr
_symmetry_space_group_name_H-M   P1
_cell_length_a   6.01410050
_cell_length_b   6.11495195
_cell_length_c   10.22564772
_cell_angle_alpha   103.79587409
_cell_angle_beta   94.94533532
_cell_angle_gamma   94.77710016
_symmetry_Int_Tables_number   1
_chemical_formula_structural   Sr
_chemical_formula_sum   Sr17
_cell_volume   361.74809737
_cell_formula_units_Z   17
loop_
 _symmetry_equiv_pos_site_id
 _symmetry_equiv_pos_as_xyz
  1  'x, y, z'
loop_
 _atom_site_type_symbol
 _atom_site_label
 _atom_site_symmetry_multiplicity
 _atom_site_fract_x
 _atom_site_fract_y
 _atom_site_fract_z
 _atom_site_occupancy
  Sr  Sr0  1  0.011036  0.761850  0.799173  1
  Sr  Sr1  1  0.178245  0.936328  0.294827  1
  Sr  Sr2  1  0.194131  0.528463  0.108185  1
  Sr  Sr3  1  0.238491  0.216809  0.593087  1
  Sr  Sr4  1  0.295681  0.221757  0.877647  1
  Sr  Sr5  1  0.387033  0.933502  0.043416  1
  Sr  Sr6  1  0.403347  0.599965  0.489642  1
  Sr  Sr7  1  0.435536  0.635779  0.797878  1
  Sr  Sr8  1  0.517526  0.332093  0.247702  1
  Sr  Sr9  1  0.630461  0.930693  0.371539  1
  Sr  Sr10  1  0.643457  0.962053  0.701033  1
  Sr  Sr11  1  0.708751  0.657853  0.127137  1
  Sr  Sr12  1  0.782237  0.339039  0.583477  1
  Sr  Sr13  1  0.833710  0.393956  0.893891  1
  Sr  Sr14  1  0.865657  0.040782  0.039084  1
  Sr  Sr15  1  0.977295  0.347135  0.304428  1
  Sr  Sr16  1  0.980169  0.767897  0.512939  1
