# generated using pymatgen
data_Sr
_symmetry_space_group_name_H-M   P1
_cell_length_a   5.61086299
_cell_length_b   6.60560849
_cell_length_c   8.65437725
_cell_angle_alpha   72.98565899
_cell_angle_beta   72.81169285
_cell_angle_gamma   65.92991349
_symmetry_Int_Tables_number   1
_chemical_formula_structural   Sr
_chemical_formula_sum   Sr13
_cell_volume   274.28904740
_cell_formula_units_Z   13
loop_
 _symmetry_equiv_pos_site_id
 _symmetry_equiv_pos_as_xyz
  1  'x, y, z'
loop_
 _atom_site_type_symbol
 _atom_site_label
 _atom_site_symmetry_multiplicity
 _atom_site_fract_x
 _atom_site_fract_y
 _atom_site_fract_z
 _atom_site_occupancy
  Sr  Sr0  1  0.022372  0.378649  0.417834  1
  Sr  Sr1  1  0.136446  0.907049  0.514333  1
  Sr  Sr2  1  0.193433  0.684275  0.108128  1
  Sr  Sr3  1  0.206859  0.542020  0.786504  1
  Sr  Sr4  1  0.241351  0.983201  0.781182  1
  Sr  Sr5  1  0.263523  0.195493  0.142295  1
  Sr  Sr6  1  0.490254  0.249362  0.525890  1
  Sr  Sr7  1  0.524441  0.644966  0.320248  1
  Sr  Sr8  1  0.666058  0.826300  0.973248  1
  Sr  Sr9  1  0.718829  0.232723  0.776007  1
  Sr  Sr10  1  0.750058  0.996752  0.281842  1
  Sr  Sr11  1  0.760913  0.695248  0.625187  1
  Sr  Sr12  1  0.812278  0.350711  0.019300  1
