# generated using pymatgen
data_Sr
_symmetry_space_group_name_H-M   P1
_cell_length_a   5.94880378
_cell_length_b   6.01233242
_cell_length_c   10.82609048
_cell_angle_alpha   104.32399861
_cell_angle_beta   90.14979198
_cell_angle_gamma   118.10354569
_symmetry_Int_Tables_number   1
_chemical_formula_structural   Sr
_chemical_formula_sum   Sr14
_cell_volume   327.70492256
_cell_formula_units_Z   14
loop_
 _symmetry_equiv_pos_site_id
 _symmetry_equiv_pos_as_xyz
  1  'x, y, z'
loop_
 _atom_site_type_symbol
 _atom_site_label
 _atom_site_symmetry_multiplicity
 _atom_site_fract_x
 _atom_site_fract_y
 _atom_site_fract_z
 _atom_site_occupancy
  Sr  Sr0  1  0.008460  0.983265  0.008391  1
  Sr  Sr1  1  0.051706  0.320982  0.326081  1
  Sr  Sr2  1  0.120328  0.791166  0.206902  1
  Sr  Sr3  1  0.212188  0.842156  0.480108  1
  Sr  Sr4  1  0.212993  0.413202  0.604216  1
  Sr  Sr5  1  0.316803  0.173103  0.797319  1
  Sr  Sr6  1  0.467441  0.791509  0.855931  1
  Sr  Sr7  1  0.470979  0.534102  0.097730  1
  Sr  Sr8  1  0.559057  0.351906  0.412957  1
  Sr  Sr9  1  0.634436  0.164208  0.129011  1
  Sr  Sr10  1  0.710199  0.042792  0.644476  1
  Sr  Sr11  1  0.725399  0.847298  0.380379  1
  Sr  Sr12  1  0.840304  0.625834  0.674814  1
  Sr  Sr13  1  0.932420  0.427710  0.909840  1
