# generated using pymatgen
data_Sr
_symmetry_space_group_name_H-M   P1
_cell_length_a   6.12599779
_cell_length_b   8.09967677
_cell_length_c   8.18782888
_cell_angle_alpha   112.15050319
_cell_angle_beta   111.82782792
_cell_angle_gamma   98.67036968
_symmetry_Int_Tables_number   1
_chemical_formula_structural   Sr
_chemical_formula_sum   Sr15
_cell_volume   328.70073807
_cell_formula_units_Z   15
loop_
 _symmetry_equiv_pos_site_id
 _symmetry_equiv_pos_as_xyz
  1  'x, y, z'
loop_
 _atom_site_type_symbol
 _atom_site_label
 _atom_site_symmetry_multiplicity
 _atom_site_fract_x
 _atom_site_fract_y
 _atom_site_fract_z
 _atom_site_occupancy
  Sr  Sr0  1  0.148186  0.573566  0.430175  1
  Sr  Sr1  1  0.186384  0.971052  0.114832  1
  Sr  Sr2  1  0.215508  0.628755  0.857182  1
  Sr  Sr3  1  0.291487  0.250749  0.521992  1
  Sr  Sr4  1  0.435238  0.141955  0.871879  1
  Sr  Sr5  1  0.450021  0.553204  0.168916  1
  Sr  Sr6  1  0.482309  0.951879  0.487804  1
  Sr  Sr7  1  0.613834  0.826303  0.826559  1
  Sr  Sr8  1  0.660020  0.450170  0.462520  1
  Sr  Sr9  1  0.697332  0.095466  0.237188  1
  Sr  Sr10  1  0.758699  0.519427  0.912395  1
  Sr  Sr11  1  0.903605  0.818564  0.294605  1
  Sr  Sr12  1  0.947944  0.228144  0.698164  1
  Sr  Sr13  1  0.969032  0.858107  0.670825  1
  Sr  Sr14  1  0.995885  0.262840  0.067217  1
