# generated using pymatgen
data_Sr
_symmetry_space_group_name_H-M   P1
_cell_length_a   8.00278631
_cell_length_b   8.24515286
_cell_length_c   8.41924604
_cell_angle_alpha   65.84265035
_cell_angle_beta   78.48888755
_cell_angle_gamma   61.03210079
_symmetry_Int_Tables_number   1
_chemical_formula_structural   Sr
_chemical_formula_sum   Sr21
_cell_volume   443.46947552
_cell_formula_units_Z   21
loop_
 _symmetry_equiv_pos_site_id
 _symmetry_equiv_pos_as_xyz
  1  'x, y, z'
loop_
 _atom_site_type_symbol
 _atom_site_label
 _atom_site_symmetry_multiplicity
 _atom_site_fract_x
 _atom_site_fract_y
 _atom_site_fract_z
 _atom_site_occupancy
  Sr  Sr0  1  0.007204  0.154063  0.359863  1
  Sr  Sr1  1  0.039130  0.616866  0.642983  1
  Sr  Sr2  1  0.129453  0.479494  0.360233  1
  Sr  Sr3  1  0.133631  0.853026  0.168807  1
  Sr  Sr4  1  0.153877  0.862743  0.776381  1
  Sr  Sr5  1  0.214988  0.185351  0.856664  1
  Sr  Sr6  1  0.332117  0.749700  0.480222  1
  Sr  Sr7  1  0.369673  0.105785  0.184823  1
  Sr  Sr8  1  0.374243  0.078584  0.562931  1
  Sr  Sr9  1  0.377610  0.475325  0.997656  1
  Sr  Sr10  1  0.479644  0.337924  0.724077  1
  Sr  Sr11  1  0.522949  0.404494  0.315673  1
  Sr  Sr12  1  0.525705  0.795894  0.007982  1
  Sr  Sr13  1  0.641780  0.667096  0.726998  1
  Sr  Sr14  1  0.714115  0.606536  0.341502  1
  Sr  Sr15  1  0.744559  0.935415  0.313110  1
  Sr  Sr16  1  0.758578  0.019928  0.595932  1
  Sr  Sr17  1  0.776678  0.962363  0.959762  1
  Sr  Sr18  1  0.794276  0.290053  0.047578  1
  Sr  Sr19  1  0.872875  0.310310  0.654688  1
  Sr  Sr20  1  0.983922  0.527931  0.026997  1
