# generated using pymatgen
data_Sr
_symmetry_space_group_name_H-M   P1
_cell_length_a   5.43598147
_cell_length_b   6.07662596
_cell_length_c   7.51838239
_cell_angle_alpha   104.11508912
_cell_angle_beta   109.30682950
_cell_angle_gamma   92.72555436
_symmetry_Int_Tables_number   1
_chemical_formula_structural   Sr
_chemical_formula_sum   Sr11
_cell_volume   225.06681792
_cell_formula_units_Z   11
loop_
 _symmetry_equiv_pos_site_id
 _symmetry_equiv_pos_as_xyz
  1  'x, y, z'
loop_
 _atom_site_type_symbol
 _atom_site_label
 _atom_site_symmetry_multiplicity
 _atom_site_fract_x
 _atom_site_fract_y
 _atom_site_fract_z
 _atom_site_occupancy
  Sr  Sr0  1  0.001323  0.171832  0.105169  1
  Sr  Sr1  1  0.071782  0.090868  0.470838  1
  Sr  Sr2  1  0.075430  0.545923  0.490500  1
  Sr  Sr3  1  0.078428  0.473197  0.841571  1
  Sr  Sr4  1  0.222473  0.705138  0.214285  1
  Sr  Sr5  1  0.248518  0.978060  0.841619  1
  Sr  Sr6  1  0.543512  0.369340  0.272811  1
  Sr  Sr7  1  0.599558  0.349109  0.868932  1
  Sr  Sr8  1  0.601138  0.079784  0.502954  1
  Sr  Sr9  1  0.667016  0.806982  0.100972  1
  Sr  Sr10  1  0.679263  0.721941  0.671352  1
