# generated using pymatgen
data_Sr
_symmetry_space_group_name_H-M   Cm
_cell_length_a   15.94053161
_cell_length_b   4.52397532
_cell_length_c   7.27023819
_cell_angle_alpha   90.00000000
_cell_angle_beta   111.43243372
_cell_angle_gamma   90.00000000
_symmetry_Int_Tables_number   8
_chemical_formula_structural   Sr
_chemical_formula_sum   Sr22
_cell_volume   488.03498902
_cell_formula_units_Z   22
loop_
 _symmetry_equiv_pos_site_id
 _symmetry_equiv_pos_as_xyz
  1  'x, y, z'
  2  'x, -y, z'
  3  'x+1/2, y+1/2, z'
  4  'x+1/2, -y+1/2, z'
loop_
 _atom_site_type_symbol
 _atom_site_label
 _atom_site_symmetry_multiplicity
 _atom_site_fract_x
 _atom_site_fract_y
 _atom_site_fract_z
 _atom_site_occupancy
  Sr  Sr0  2  0.012182  0.500000  0.010408  1
  Sr  Sr1  2  0.057968  0.000000  0.828070  1
  Sr  Sr2  2  0.076509  0.500000  0.524827  1
  Sr  Sr3  2  0.120681  0.000000  0.278962  1
  Sr  Sr4  2  0.207862  0.500000  0.062121  1
  Sr  Sr5  2  0.227745  0.000000  0.765895  1
  Sr  Sr6  2  0.250107  0.500000  0.471346  1
  Sr  Sr7  2  0.345443  0.000000  0.193160  1
  Sr  Sr8  2  0.372684  0.000000  0.626874  1
  Sr  Sr9  2  0.381209  0.500000  0.961841  1
  Sr  Sr10  2  0.434495  0.500000  0.442182  1
