# generated using pymatgen
data_Sr
_symmetry_space_group_name_H-M   P1
_cell_length_a   5.87160699
_cell_length_b   5.89769814
_cell_length_c   8.24389712
_cell_angle_alpha   72.25991527
_cell_angle_beta   79.37632934
_cell_angle_gamma   66.45359154
_symmetry_Int_Tables_number   1
_chemical_formula_structural   Sr
_chemical_formula_sum   Sr10
_cell_volume   248.62113958
_cell_formula_units_Z   10
loop_
 _symmetry_equiv_pos_site_id
 _symmetry_equiv_pos_as_xyz
  1  'x, y, z'
loop_
 _atom_site_type_symbol
 _atom_site_label
 _atom_site_symmetry_multiplicity
 _atom_site_fract_x
 _atom_site_fract_y
 _atom_site_fract_z
 _atom_site_occupancy
  Sr  Sr0  1  0.011853  0.807088  0.537819  1
  Sr  Sr1  1  0.112171  0.542621  0.874481  1
  Sr  Sr2  1  0.161290  0.159855  0.669407  1
  Sr  Sr3  1  0.197792  0.083706  0.133977  1
  Sr  Sr4  1  0.199687  0.516857  0.267507  1
  Sr  Sr5  1  0.567951  0.794163  0.437913  1
  Sr  Sr6  1  0.580656  0.671317  0.911169  1
  Sr  Sr7  1  0.605758  0.322142  0.693330  1
  Sr  Sr8  1  0.717814  0.328912  0.320120  1
  Sr  Sr9  1  0.749147  0.000789  0.047168  1
