# generated using pymatgen
data_Sr
_symmetry_space_group_name_H-M   P1
_cell_length_a   5.16214384
_cell_length_b   6.08869932
_cell_length_c   10.46242087
_cell_angle_alpha   90.40952461
_cell_angle_beta   98.51371647
_cell_angle_gamma   106.94764688
_symmetry_Int_Tables_number   1
_chemical_formula_structural   Sr
_chemical_formula_sum   Sr16
_cell_volume   310.65414600
_cell_formula_units_Z   16
loop_
 _symmetry_equiv_pos_site_id
 _symmetry_equiv_pos_as_xyz
  1  'x, y, z'
loop_
 _atom_site_type_symbol
 _atom_site_label
 _atom_site_symmetry_multiplicity
 _atom_site_fract_x
 _atom_site_fract_y
 _atom_site_fract_z
 _atom_site_occupancy
  Sr  Sr0  1  0.009331  0.452671  0.615407  1
  Sr  Sr1  1  0.455405  0.322313  0.740277  1
  Sr  Sr2  1  0.464983  0.083535  0.987525  1
  Sr  Sr3  1  0.472527  0.075211  0.498851  1
  Sr  Sr4  1  0.473117  0.815771  0.747015  1
  Sr  Sr5  1  0.486156  0.558356  0.496486  1
  Sr  Sr6  1  0.487581  0.328419  0.241369  1
  Sr  Sr7  1  0.488213  0.814135  0.237244  1
  Sr  Sr8  1  0.530138  0.566203  0.001568  1
  Sr  Sr9  1  0.957658  0.205766  0.376068  1
  Sr  Sr10  1  0.966323  0.684032  0.368245  1
  Sr  Sr11  1  0.971701  0.216387  0.873157  1
  Sr  Sr12  1  0.986249  0.945924  0.609416  1
  Sr  Sr13  1  0.992520  0.672872  0.864562  1
  Sr  Sr14  1  0.996162  0.435226  0.111328  1
  Sr  Sr15  1  0.997843  0.952100  0.121178  1
