# generated using pymatgen
data_Sr
_symmetry_space_group_name_H-M   Cm
_cell_length_a   10.35987451
_cell_length_b   3.13763644
_cell_length_c   16.31892067
_cell_angle_alpha   90.00000000
_cell_angle_beta   99.88195507
_cell_angle_gamma   90.00000000
_symmetry_Int_Tables_number   8
_chemical_formula_structural   Sr
_chemical_formula_sum   Sr28
_cell_volume   522.58486417
_cell_formula_units_Z   28
loop_
 _symmetry_equiv_pos_site_id
 _symmetry_equiv_pos_as_xyz
  1  'x, y, z'
  2  'x, -y, z'
  3  'x+1/2, y+1/2, z'
  4  'x+1/2, -y+1/2, z'
loop_
 _atom_site_type_symbol
 _atom_site_label
 _atom_site_symmetry_multiplicity
 _atom_site_fract_x
 _atom_site_fract_y
 _atom_site_fract_z
 _atom_site_occupancy
  Sr  Sr0  2  0.001517  0.000000  0.646819  1
  Sr  Sr1  2  0.030223  0.500000  0.511352  1
  Sr  Sr2  2  0.039905  0.500000  0.045668  1
  Sr  Sr3  2  0.133679  0.000000  0.355609  1
  Sr  Sr4  2  0.151497  0.500000  0.764834  1
  Sr  Sr5  2  0.153235  0.000000  0.912158  1
  Sr  Sr6  2  0.168627  0.500000  0.218065  1
  Sr  Sr7  2  0.252328  0.000000  0.607352  1
  Sr  Sr8  2  0.281635  0.500000  0.472180  1
  Sr  Sr9  2  0.287270  0.000000  0.077797  1
  Sr  Sr10  2  0.367532  0.500000  0.924550  1
  Sr  Sr11  2  0.390049  0.000000  0.782878  1
  Sr  Sr12  2  0.400532  0.000000  0.336520  1
  Sr  Sr13  2  0.430980  0.500000  0.197393  1
