# generated using pymatgen
data_Sr
_symmetry_space_group_name_H-M   P1
_cell_length_a   5.51498158
_cell_length_b   5.92719200
_cell_length_c   6.22795807
_cell_angle_alpha   89.03175062
_cell_angle_beta   77.41680539
_cell_angle_gamma   84.63349296
_symmetry_Int_Tables_number   1
_chemical_formula_structural   Sr
_chemical_formula_sum   Sr9
_cell_volume   197.81964207
_cell_formula_units_Z   9
loop_
 _symmetry_equiv_pos_site_id
 _symmetry_equiv_pos_as_xyz
  1  'x, y, z'
loop_
 _atom_site_type_symbol
 _atom_site_label
 _atom_site_symmetry_multiplicity
 _atom_site_fract_x
 _atom_site_fract_y
 _atom_site_fract_z
 _atom_site_occupancy
  Sr  Sr0  1  0.138510  0.857339  0.130666  1
  Sr  Sr1  1  0.170044  0.429818  0.280915  1
  Sr  Sr2  1  0.261349  0.696414  0.644085  1
  Sr  Sr3  1  0.313419  0.255013  0.826447  1
  Sr  Sr4  1  0.595963  0.987304  0.427877  1
  Sr  Sr5  1  0.670765  0.877786  0.975898  1
  Sr  Sr6  1  0.715131  0.395094  0.141689  1
  Sr  Sr7  1  0.760821  0.525528  0.647935  1
  Sr  Sr8  1  0.962237  0.085578  0.623006  1
