# generated using pymatgen
data_Sr
_symmetry_space_group_name_H-M   P1
_cell_length_a   5.95720819
_cell_length_b   6.22127416
_cell_length_c   6.26085651
_cell_angle_alpha   61.53655577
_cell_angle_beta   89.02522666
_cell_angle_gamma   86.51630894
_symmetry_Int_Tables_number   1
_chemical_formula_structural   Sr
_chemical_formula_sum   Sr9
_cell_volume   203.59222285
_cell_formula_units_Z   9
loop_
 _symmetry_equiv_pos_site_id
 _symmetry_equiv_pos_as_xyz
  1  'x, y, z'
loop_
 _atom_site_type_symbol
 _atom_site_label
 _atom_site_symmetry_multiplicity
 _atom_site_fract_x
 _atom_site_fract_y
 _atom_site_fract_z
 _atom_site_occupancy
  Sr  Sr0  1  0.026252  0.864064  0.744375  1
  Sr  Sr1  1  0.045744  0.358451  0.036141  1
  Sr  Sr2  1  0.181958  0.348677  0.613782  1
  Sr  Sr3  1  0.339597  0.765726  0.169768  1
  Sr  Sr4  1  0.399071  0.116971  0.339116  1
  Sr  Sr5  1  0.517913  0.658571  0.777377  1
  Sr  Sr6  1  0.642782  0.173360  0.842789  1
  Sr  Sr7  1  0.740604  0.411395  0.339361  1
  Sr  Sr8  1  0.870820  0.850825  0.319931  1
