# generated using pymatgen
data_Sr
_symmetry_space_group_name_H-M   P1
_cell_length_a   6.04705125
_cell_length_b   6.16063562
_cell_length_c   6.27132823
_cell_angle_alpha   93.40393708
_cell_angle_beta   98.74284013
_cell_angle_gamma   90.34818321
_symmetry_Int_Tables_number   1
_chemical_formula_structural   Sr
_chemical_formula_sum   Sr11
_cell_volume   230.48099282
_cell_formula_units_Z   11
loop_
 _symmetry_equiv_pos_site_id
 _symmetry_equiv_pos_as_xyz
  1  'x, y, z'
loop_
 _atom_site_type_symbol
 _atom_site_label
 _atom_site_symmetry_multiplicity
 _atom_site_fract_x
 _atom_site_fract_y
 _atom_site_fract_z
 _atom_site_occupancy
  Sr  Sr0  1  0.127280  0.319602  0.796338  1
  Sr  Sr1  1  0.128156  0.975058  0.343519  1
  Sr  Sr2  1  0.255774  0.361561  0.279409  1
  Sr  Sr3  1  0.355337  0.870550  0.779997  1
  Sr  Sr4  1  0.462980  0.725236  0.257533  1
  Sr  Sr5  1  0.531580  0.462411  0.721819  1
  Sr  Sr6  1  0.614259  0.115261  0.108910  1
  Sr  Sr7  1  0.700201  0.098217  0.540207  1
  Sr  Sr8  1  0.856688  0.497730  0.094539  1
  Sr  Sr9  1  0.920645  0.602571  0.528627  1
  Sr  Sr10  1  0.935849  0.887872  0.932674  1
