# generated using pymatgen
data_Sr
_symmetry_space_group_name_H-M   P1
_cell_length_a   6.05369099
_cell_length_b   6.20998471
_cell_length_c   8.60114954
_cell_angle_alpha   79.76414830
_cell_angle_beta   76.17673759
_cell_angle_gamma   89.03216666
_symmetry_Int_Tables_number   1
_chemical_formula_structural   Sr
_chemical_formula_sum   Sr13
_cell_volume   308.87315130
_cell_formula_units_Z   13
loop_
 _symmetry_equiv_pos_site_id
 _symmetry_equiv_pos_as_xyz
  1  'x, y, z'
loop_
 _atom_site_type_symbol
 _atom_site_label
 _atom_site_symmetry_multiplicity
 _atom_site_fract_x
 _atom_site_fract_y
 _atom_site_fract_z
 _atom_site_occupancy
  Sr  Sr0  1  0.002932  0.373451  0.906871  1
  Sr  Sr1  1  0.031031  0.942610  0.311751  1
  Sr  Sr2  1  0.078587  0.542603  0.548436  1
  Sr  Sr3  1  0.161282  0.039365  0.668466  1
  Sr  Sr4  1  0.269943  0.717127  0.004350  1
  Sr  Sr5  1  0.419564  0.222931  0.293401  1
  Sr  Sr6  1  0.472112  0.239795  0.914123  1
  Sr  Sr7  1  0.520836  0.675674  0.279237  1
  Sr  Sr8  1  0.529206  0.677021  0.605831  1
  Sr  Sr9  1  0.679325  0.181352  0.578785  1
  Sr  Sr10  1  0.754163  0.745789  0.857292  1
  Sr  Sr11  1  0.786363  0.999119  0.082210  1
  Sr  Sr12  1  0.916136  0.451078  0.250028  1
