# generated using pymatgen
data_Sr
_symmetry_space_group_name_H-M   P1
_cell_length_a   5.76310321
_cell_length_b   5.88528653
_cell_length_c   5.94343777
_cell_angle_alpha   102.86453967
_cell_angle_beta   117.83340174
_cell_angle_gamma   105.57961387
_symmetry_Int_Tables_number   1
_chemical_formula_structural   Sr
_chemical_formula_sum   Sr5
_cell_volume   156.72729302
_cell_formula_units_Z   5
loop_
 _symmetry_equiv_pos_site_id
 _symmetry_equiv_pos_as_xyz
  1  'x, y, z'
loop_
 _atom_site_type_symbol
 _atom_site_label
 _atom_site_symmetry_multiplicity
 _atom_site_fract_x
 _atom_site_fract_y
 _atom_site_fract_z
 _atom_site_occupancy
  Sr  Sr0  1  0.283071  0.695375  0.187322  1
  Sr  Sr1  1  0.542685  0.098331  0.023677  1
  Sr  Sr2  1  0.546117  0.396823  0.588879  1
  Sr  Sr3  1  0.942384  0.094940  0.856683  1
  Sr  Sr4  1  0.965403  0.857062  0.364535  1
