# generated using pymatgen
data_Sr
_symmetry_space_group_name_H-M   P1
_cell_length_a   5.94182725
_cell_length_b   6.07883778
_cell_length_c   6.26085516
_cell_angle_alpha   97.04468016
_cell_angle_beta   104.74464143
_cell_angle_gamma   102.45794306
_symmetry_Int_Tables_number   1
_chemical_formula_structural   Sr
_chemical_formula_sum   Sr9
_cell_volume   209.73389922
_cell_formula_units_Z   9
loop_
 _symmetry_equiv_pos_site_id
 _symmetry_equiv_pos_as_xyz
  1  'x, y, z'
loop_
 _atom_site_type_symbol
 _atom_site_label
 _atom_site_symmetry_multiplicity
 _atom_site_fract_x
 _atom_site_fract_y
 _atom_site_fract_z
 _atom_site_occupancy
  Sr  Sr0  1  0.038722  0.794112  0.178698  1
  Sr  Sr1  1  0.140357  0.374579  0.414265  1
  Sr  Sr2  1  0.249490  0.071206  0.809854  1
  Sr  Sr3  1  0.451835  0.519871  0.122533  1
  Sr  Sr4  1  0.488729  0.696237  0.747911  1
  Sr  Sr5  1  0.518877  0.129554  0.356179  1
  Sr  Sr6  1  0.786615  0.183512  0.987679  1
  Sr  Sr7  1  0.810630  0.871885  0.488033  1
  Sr  Sr8  1  0.890636  0.488808  0.713182  1
