# generated using pymatgen
data_Sr
_symmetry_space_group_name_H-M   P1
_cell_length_a   5.97906935
_cell_length_b   6.36344185
_cell_length_c   6.42240404
_cell_angle_alpha   92.41819501
_cell_angle_beta   90.91369165
_cell_angle_gamma   91.83308296
_symmetry_Int_Tables_number   1
_chemical_formula_structural   Sr
_chemical_formula_sum   Sr10
_cell_volume   243.97701832
_cell_formula_units_Z   10
loop_
 _symmetry_equiv_pos_site_id
 _symmetry_equiv_pos_as_xyz
  1  'x, y, z'
loop_
 _atom_site_type_symbol
 _atom_site_label
 _atom_site_symmetry_multiplicity
 _atom_site_fract_x
 _atom_site_fract_y
 _atom_site_fract_z
 _atom_site_occupancy
  Sr  Sr0  1  0.040849  0.353161  0.837202  1
  Sr  Sr1  1  0.188757  0.537781  0.430953  1
  Sr  Sr2  1  0.210467  0.125038  0.251569  1
  Sr  Sr3  1  0.345125  0.998485  0.693410  1
  Sr  Sr4  1  0.493811  0.526726  0.796538  1
  Sr  Sr5  1  0.533117  0.730607  0.227585  1
  Sr  Sr6  1  0.647782  0.146907  0.052850  1
  Sr  Sr7  1  0.740796  0.347453  0.440825  1
  Sr  Sr8  1  0.843373  0.891791  0.596096  1
  Sr  Sr9  1  0.987760  0.730811  0.047575  1
