# generated using pymatgen
data_Sr
_symmetry_space_group_name_H-M   P1
_cell_length_a   5.61460072
_cell_length_b   5.69148027
_cell_length_c   5.84325076
_cell_angle_alpha   68.14391395
_cell_angle_beta   63.44583335
_cell_angle_gamma   63.48625759
_symmetry_Int_Tables_number   1
_chemical_formula_structural   Sr
_chemical_formula_sum   Sr7
_cell_volume   145.93901505
_cell_formula_units_Z   7
loop_
 _symmetry_equiv_pos_site_id
 _symmetry_equiv_pos_as_xyz
  1  'x, y, z'
loop_
 _atom_site_type_symbol
 _atom_site_label
 _atom_site_symmetry_multiplicity
 _atom_site_fract_x
 _atom_site_fract_y
 _atom_site_fract_z
 _atom_site_occupancy
  Sr  Sr0  1  0.052768  0.970976  0.036923  1
  Sr  Sr1  1  0.265468  0.878828  0.532592  1
  Sr  Sr2  1  0.298111  0.526499  0.313215  1
  Sr  Sr3  1  0.418507  0.169227  0.996947  1
  Sr  Sr4  1  0.664046  0.091022  0.492492  1
  Sr  Sr5  1  0.767870  0.495731  0.607173  1
  Sr  Sr6  1  0.873657  0.586748  0.986914  1
