# generated using pymatgen
data_Sr
_symmetry_space_group_name_H-M   P1
_cell_length_a   5.86266427
_cell_length_b   8.01829740
_cell_length_c   8.90950846
_cell_angle_alpha   99.36702559
_cell_angle_beta   97.10993147
_cell_angle_gamma   105.12682086
_symmetry_Int_Tables_number   1
_chemical_formula_structural   Sr
_chemical_formula_sum   Sr18
_cell_volume   392.79687159
_cell_formula_units_Z   18
loop_
 _symmetry_equiv_pos_site_id
 _symmetry_equiv_pos_as_xyz
  1  'x, y, z'
loop_
 _atom_site_type_symbol
 _atom_site_label
 _atom_site_symmetry_multiplicity
 _atom_site_fract_x
 _atom_site_fract_y
 _atom_site_fract_z
 _atom_site_occupancy
  Sr  Sr0  1  0.022382  0.216728  0.292313  1
  Sr  Sr1  1  0.101985  0.494076  0.793598  1
  Sr  Sr2  1  0.121077  0.129057  0.597978  1
  Sr  Sr3  1  0.222399  0.223372  0.927232  1
  Sr  Sr4  1  0.245840  0.854519  0.735169  1
  Sr  Sr5  1  0.255186  0.799320  0.389877  1
  Sr  Sr6  1  0.342479  0.497829  0.522128  1
  Sr  Sr7  1  0.425842  0.759718  0.035465  1
  Sr  Sr8  1  0.463016  0.117438  0.260459  1
  Sr  Sr9  1  0.472698  0.481109  0.193564  1
  Sr  Sr10  1  0.636716  0.188688  0.603336  1
  Sr  Sr11  1  0.641719  0.514844  0.844126  1
  Sr  Sr12  1  0.709003  0.141156  0.948972  1
  Sr  Sr13  1  0.722830  0.828610  0.696379  1
  Sr  Sr14  1  0.773821  0.849615  0.357661  1
  Sr  Sr15  1  0.829380  0.506923  0.481165  1
  Sr  Sr16  1  0.947092  0.510538  0.139614  1
  Sr  Sr17  1  0.976183  0.872899  0.039088  1
