# generated using pymatgen
data_Sr
_symmetry_space_group_name_H-M   P1
_cell_length_a   5.87018657
_cell_length_b   5.93475409
_cell_length_c   8.49886049
_cell_angle_alpha   104.29378888
_cell_angle_beta   94.78138017
_cell_angle_gamma   90.97223301
_symmetry_Int_Tables_number   1
_chemical_formula_structural   Sr
_chemical_formula_sum   Sr13
_cell_volume   285.70355208
_cell_formula_units_Z   13
loop_
 _symmetry_equiv_pos_site_id
 _symmetry_equiv_pos_as_xyz
  1  'x, y, z'
loop_
 _atom_site_type_symbol
 _atom_site_label
 _atom_site_symmetry_multiplicity
 _atom_site_fract_x
 _atom_site_fract_y
 _atom_site_fract_z
 _atom_site_occupancy
  Sr  Sr0  1  0.014014  0.698740  0.452875  1
  Sr  Sr1  1  0.027856  0.870907  0.803688  1
  Sr  Sr2  1  0.095159  0.256260  0.281347  1
  Sr  Sr3  1  0.241792  0.168610  0.560182  1
  Sr  Sr4  1  0.253893  0.286084  0.998171  1
  Sr  Sr5  1  0.341632  0.804124  0.165197  1
  Sr  Sr6  1  0.446577  0.553800  0.803227  1
  Sr  Sr7  1  0.517779  0.573107  0.417615  1
  Sr  Sr8  1  0.566615  0.944903  0.706355  1
  Sr  Sr9  1  0.683660  0.119014  0.389478  1
  Sr  Sr10  1  0.694729  0.153199  0.054097  1
  Sr  Sr11  1  0.822393  0.658147  0.102682  1
  Sr  Sr12  1  0.885841  0.397576  0.731211  1
