# generated using pymatgen
data_Sr
_symmetry_space_group_name_H-M   P1
_cell_length_a   5.66577836
_cell_length_b   6.58600475
_cell_length_c   13.21764419
_cell_angle_alpha   84.43901860
_cell_angle_beta   81.83101801
_cell_angle_gamma   73.29768840
_symmetry_Int_Tables_number   1
_chemical_formula_structural   Sr
_chemical_formula_sum   Sr23
_cell_volume   466.79429937
_cell_formula_units_Z   23
loop_
 _symmetry_equiv_pos_site_id
 _symmetry_equiv_pos_as_xyz
  1  'x, y, z'
loop_
 _atom_site_type_symbol
 _atom_site_label
 _atom_site_symmetry_multiplicity
 _atom_site_fract_x
 _atom_site_fract_y
 _atom_site_fract_z
 _atom_site_occupancy
  Sr  Sr0  1  0.064071  0.897022  0.193526  1
  Sr  Sr1  1  0.079549  0.500449  0.270169  1
  Sr  Sr2  1  0.107529  0.113830  0.342554  1
  Sr  Sr3  1  0.158655  0.687639  0.838518  1
  Sr  Sr4  1  0.190508  0.245279  0.528567  1
  Sr  Sr5  1  0.191619  0.181064  0.843442  1
  Sr  Sr6  1  0.209165  0.767505  0.501550  1
  Sr  Sr7  1  0.312430  0.604319  0.041078  1
  Sr  Sr8  1  0.317177  0.149125  0.071445  1
  Sr  Sr9  1  0.448359  0.431740  0.660830  1
  Sr  Sr10  1  0.456507  0.900744  0.661580  1
  Sr  Sr11  1  0.511122  0.460211  0.370609  1
  Sr  Sr12  1  0.591141  0.817237  0.878934  1
  Sr  Sr13  1  0.599942  0.949685  0.348871  1
  Sr  Sr14  1  0.614091  0.727221  0.176209  1
  Sr  Sr15  1  0.623575  0.320014  0.862203  1
  Sr  Sr16  1  0.646379  0.270800  0.181033  1
  Sr  Sr17  1  0.728702  0.130664  0.506837  1
  Sr  Sr18  1  0.809387  0.620800  0.486770  1
  Sr  Sr19  1  0.859004  0.983105  0.003902  1
  Sr  Sr20  1  0.880203  0.465712  0.010519  1
  Sr  Sr21  1  0.903758  0.535789  0.700414  1
  Sr  Sr22  1  0.907689  0.027687  0.703245  1
