# generated using pymatgen
data_Sr
_symmetry_space_group_name_H-M   Cm
_cell_length_a   6.66302705
_cell_length_b   9.79516701
_cell_length_c   8.43489698
_cell_angle_alpha   90.00000000
_cell_angle_beta   103.00190741
_cell_angle_gamma   90.00000000
_symmetry_Int_Tables_number   8
_chemical_formula_structural   Sr
_chemical_formula_sum   Sr24
_cell_volume   536.39386186
_cell_formula_units_Z   24
loop_
 _symmetry_equiv_pos_site_id
 _symmetry_equiv_pos_as_xyz
  1  'x, y, z'
  2  'x, -y, z'
  3  'x+1/2, y+1/2, z'
  4  'x+1/2, -y+1/2, z'
loop_
 _atom_site_type_symbol
 _atom_site_label
 _atom_site_symmetry_multiplicity
 _atom_site_fract_x
 _atom_site_fract_y
 _atom_site_fract_z
 _atom_site_occupancy
  Sr  Sr0  4  0.009545  0.250300  0.956466  1
  Sr  Sr1  4  0.162285  0.230187  0.623301  1
  Sr  Sr2  4  0.339560  0.270541  0.285087  1
  Sr  Sr3  2  0.112698  0.500000  0.388279  1
  Sr  Sr4  2  0.132505  0.000000  0.369108  1
  Sr  Sr5  2  0.287741  0.000000  0.056098  1
  Sr  Sr6  2  0.290238  0.500000  0.037403  1
  Sr  Sr7  2  0.430662  0.500000  0.710083  1
  Sr  Sr8  2  0.460534  0.000000  0.727454  1
