# generated using pymatgen
data_Sr
_symmetry_space_group_name_H-M   Cm
_cell_length_a   12.49687897
_cell_length_b   3.54774051
_cell_length_c   8.55038473
_cell_angle_alpha   90.00000000
_cell_angle_beta   108.61963092
_cell_angle_gamma   90.00000000
_symmetry_Int_Tables_number   8
_chemical_formula_structural   Sr
_chemical_formula_sum   Sr14
_cell_volume   359.24538046
_cell_formula_units_Z   14
loop_
 _symmetry_equiv_pos_site_id
 _symmetry_equiv_pos_as_xyz
  1  'x, y, z'
  2  'x, -y, z'
  3  'x+1/2, y+1/2, z'
  4  'x+1/2, -y+1/2, z'
loop_
 _atom_site_type_symbol
 _atom_site_label
 _atom_site_symmetry_multiplicity
 _atom_site_fract_x
 _atom_site_fract_y
 _atom_site_fract_z
 _atom_site_occupancy
  Sr  Sr0  2  0.032141  0.000000  0.841431  1
  Sr  Sr1  2  0.142984  0.500000  0.537253  1
  Sr  Sr2  2  0.143218  0.000000  0.226264  1
  Sr  Sr3  2  0.275781  0.500000  0.092414  1
  Sr  Sr4  2  0.292411  0.000000  0.799319  1
  Sr  Sr5  2  0.391335  0.500000  0.490371  1
  Sr  Sr6  2  0.462463  0.000000  0.188140  1
