# generated using pymatgen
data_Sr
_symmetry_space_group_name_H-M   P1
_cell_length_a   5.48872969
_cell_length_b   5.64845107
_cell_length_c   6.47615469
_cell_angle_alpha   71.80450917
_cell_angle_beta   86.55760801
_cell_angle_gamma   71.88345233
_symmetry_Int_Tables_number   1
_chemical_formula_structural   Sr
_chemical_formula_sum   Sr8
_cell_volume   181.13100114
_cell_formula_units_Z   8
loop_
 _symmetry_equiv_pos_site_id
 _symmetry_equiv_pos_as_xyz
  1  'x, y, z'
loop_
 _atom_site_type_symbol
 _atom_site_label
 _atom_site_symmetry_multiplicity
 _atom_site_fract_x
 _atom_site_fract_y
 _atom_site_fract_z
 _atom_site_occupancy
  Sr  Sr0  1  0.031386  0.134311  0.865488  1
  Sr  Sr1  1  0.359222  0.568289  0.123262  1
  Sr  Sr2  1  0.390088  0.801072  0.603029  1
  Sr  Sr3  1  0.523024  0.023886  0.173289  1
  Sr  Sr4  1  0.562497  0.260975  0.650349  1
  Sr  Sr5  1  0.860058  0.668494  0.896572  1
  Sr  Sr6  1  0.908190  0.222335  0.329285  1
  Sr  Sr7  1  0.994811  0.656769  0.451012  1
