# generated using pymatgen
data_Sr
_symmetry_space_group_name_H-M   P1
_cell_length_a   7.66834481
_cell_length_b   8.06290115
_cell_length_c   8.65275889
_cell_angle_alpha   100.58352321
_cell_angle_beta   115.70940815
_cell_angle_gamma   90.80635522
_symmetry_Int_Tables_number   1
_chemical_formula_structural   Sr
_chemical_formula_sum   Sr22
_cell_volume   471.16901646
_cell_formula_units_Z   22
loop_
 _symmetry_equiv_pos_site_id
 _symmetry_equiv_pos_as_xyz
  1  'x, y, z'
loop_
 _atom_site_type_symbol
 _atom_site_label
 _atom_site_symmetry_multiplicity
 _atom_site_fract_x
 _atom_site_fract_y
 _atom_site_fract_z
 _atom_site_occupancy
  Sr  Sr0  1  0.106267  0.902406  0.553206  1
  Sr  Sr1  1  0.179840  0.217702  0.452289  1
  Sr  Sr2  1  0.183351  0.475810  0.991730  1
  Sr  Sr3  1  0.222696  0.820495  0.260989  1
  Sr  Sr4  1  0.236231  0.577183  0.705735  1
  Sr  Sr5  1  0.263833  0.160298  0.149240  1
  Sr  Sr6  1  0.412156  0.527920  0.386534  1
  Sr  Sr7  1  0.412312  0.838816  0.025004  1
  Sr  Sr8  1  0.418035  0.131715  0.875739  1
  Sr  Sr9  1  0.548230  0.823373  0.711827  1
  Sr  Sr10  1  0.551152  0.373949  0.716603  1
  Sr  Sr11  1  0.569251  0.060089  0.518371  1
  Sr  Sr12  1  0.575486  0.490219  0.078918  1
  Sr  Sr13  1  0.686077  0.246480  0.322595  1
  Sr  Sr14  1  0.709127  0.779515  0.370219  1
  Sr  Sr15  1  0.827877  0.970194  0.174892  1
  Sr  Sr16  1  0.833332  0.549351  0.614510  1
  Sr  Sr17  1  0.840422  0.655059  0.978423  1
  Sr  Sr18  1  0.849759  0.209653  0.981424  1
  Sr  Sr19  1  0.979396  0.205021  0.678877  1
  Sr  Sr20  1  0.986261  0.899207  0.831847  1
  Sr  Sr21  1  0.993639  0.494503  0.306910  1
