# generated using pymatgen
data_Sr
_symmetry_space_group_name_H-M   P1
_cell_length_a   5.87410786
_cell_length_b   7.91322318
_cell_length_c   7.96605345
_cell_angle_alpha   117.70025176
_cell_angle_beta   101.11669832
_cell_angle_gamma   100.93019975
_symmetry_Int_Tables_number   1
_chemical_formula_structural   Sr
_chemical_formula_sum   Sr14
_cell_volume   304.62762688
_cell_formula_units_Z   14
loop_
 _symmetry_equiv_pos_site_id
 _symmetry_equiv_pos_as_xyz
  1  'x, y, z'
loop_
 _atom_site_type_symbol
 _atom_site_label
 _atom_site_symmetry_multiplicity
 _atom_site_fract_x
 _atom_site_fract_y
 _atom_site_fract_z
 _atom_site_occupancy
  Sr  Sr0  1  0.156660  0.631397  0.716449  1
  Sr  Sr1  1  0.171540  0.633236  0.082867  1
  Sr  Sr2  1  0.177392  0.227689  0.754798  1
  Sr  Sr3  1  0.191869  0.038755  0.314410  1
  Sr  Sr4  1  0.419996  0.040079  0.026966  1
  Sr  Sr5  1  0.435259  0.861520  0.559003  1
  Sr  Sr6  1  0.438290  0.447829  0.258252  1
  Sr  Sr7  1  0.587234  0.491180  0.643804  1
  Sr  Sr8  1  0.667225  0.728581  0.072702  1
  Sr  Sr9  1  0.694333  0.302982  0.897217  1
  Sr  Sr10  1  0.732829  0.130464  0.437295  1
  Sr  Sr11  1  0.882993  0.965580  0.893195  1
  Sr  Sr12  1  0.895660  0.769466  0.463203  1
  Sr  Sr13  1  0.970922  0.362141  0.277601  1
