# generated using pymatgen
data_Sr
_symmetry_space_group_name_H-M   P1
_cell_length_a   4.65639305
_cell_length_b   5.62579316
_cell_length_c   5.69584035
_cell_angle_alpha   62.45918960
_cell_angle_beta   66.09796192
_cell_angle_gamma   89.67192876
_symmetry_Int_Tables_number   1
_chemical_formula_structural   Sr
_chemical_formula_sum   Sr4
_cell_volume   117.87889457
_cell_formula_units_Z   4
loop_
 _symmetry_equiv_pos_site_id
 _symmetry_equiv_pos_as_xyz
  1  'x, y, z'
loop_
 _atom_site_type_symbol
 _atom_site_label
 _atom_site_symmetry_multiplicity
 _atom_site_fract_x
 _atom_site_fract_y
 _atom_site_fract_z
 _atom_site_occupancy
  Sr  Sr0  1  0.103280  0.030014  0.018352  1
  Sr  Sr1  1  0.397156  0.724898  0.531460  1
  Sr  Sr2  1  0.636039  0.517641  0.058000  1
  Sr  Sr3  1  0.882630  0.278471  0.537953  1
