# generated using pymatgen
data_Sr
_symmetry_space_group_name_H-M   P1
_cell_length_a   6.23589832
_cell_length_b   6.28964755
_cell_length_c   8.27275555
_cell_angle_alpha   76.31722410
_cell_angle_beta   74.43941360
_cell_angle_gamma   80.32905452
_symmetry_Int_Tables_number   1
_chemical_formula_structural   Sr
_chemical_formula_sum   Sr13
_cell_volume   301.80717262
_cell_formula_units_Z   13
loop_
 _symmetry_equiv_pos_site_id
 _symmetry_equiv_pos_as_xyz
  1  'x, y, z'
loop_
 _atom_site_type_symbol
 _atom_site_label
 _atom_site_symmetry_multiplicity
 _atom_site_fract_x
 _atom_site_fract_y
 _atom_site_fract_z
 _atom_site_occupancy
  Sr  Sr0  1  0.049637  0.128144  0.279843  1
  Sr  Sr1  1  0.251491  0.265081  0.517019  1
  Sr  Sr2  1  0.265449  0.386515  0.969962  1
  Sr  Sr3  1  0.288706  0.808457  0.676358  1
  Sr  Sr4  1  0.318067  0.715697  0.321421  1
  Sr  Sr5  1  0.475091  0.946204  0.933230  1
  Sr  Sr6  1  0.605158  0.066100  0.285088  1
  Sr  Sr7  1  0.632370  0.356599  0.611953  1
  Sr  Sr8  1  0.640181  0.478835  0.060482  1
  Sr  Sr9  1  0.809018  0.868720  0.601988  1
  Sr  Sr10  1  0.911133  0.593038  0.282503  1
  Sr  Sr11  1  0.947856  0.945856  0.960776  1
  Sr  Sr12  1  0.953141  0.432040  0.767989  1
