# generated using pymatgen
data_Sr
_symmetry_space_group_name_H-M   Pm
_cell_length_a   7.41175795
_cell_length_b   8.47568601
_cell_length_c   7.63322395
_cell_angle_alpha   90.00000000
_cell_angle_beta   90.18937711
_cell_angle_gamma   90.00000000
_symmetry_Int_Tables_number   6
_chemical_formula_structural   Sr
_chemical_formula_sum   Sr22
_cell_volume   479.51447204
_cell_formula_units_Z   22
loop_
 _symmetry_equiv_pos_site_id
 _symmetry_equiv_pos_as_xyz
  1  'x, y, z'
  2  'x, -y, z'
loop_
 _atom_site_type_symbol
 _atom_site_label
 _atom_site_symmetry_multiplicity
 _atom_site_fract_x
 _atom_site_fract_y
 _atom_site_fract_z
 _atom_site_occupancy
  Sr  Sr0  2  0.053524  0.243887  0.735535  1
  Sr  Sr1  2  0.204816  0.328830  0.389894  1
  Sr  Sr2  2  0.355448  0.253784  0.047234  1
  Sr  Sr3  2  0.556599  0.254979  0.551430  1
  Sr  Sr4  2  0.708115  0.338440  0.899494  1
  Sr  Sr5  2  0.854395  0.241207  0.235186  1
  Sr  Sr6  1  0.053508  0.500000  0.048615  1
  Sr  Sr7  1  0.070060  0.000000  0.044103  1
  Sr  Sr8  1  0.198041  0.000000  0.392810  1
  Sr  Sr9  1  0.330231  0.500000  0.741890  1
  Sr  Sr10  1  0.342386  0.000000  0.726069  1
  Sr  Sr11  1  0.551127  0.000000  0.253422  1
  Sr  Sr12  1  0.559041  0.500000  0.248550  1
  Sr  Sr13  1  0.698259  0.000000  0.890517  1
  Sr  Sr14  1  0.849732  0.000000  0.542781  1
  Sr  Sr15  1  0.869282  0.500000  0.534698  1
