# generated using pymatgen
data_Sr
_symmetry_space_group_name_H-M   C2/c
_cell_length_a   7.37774878
_cell_length_b   8.84714566
_cell_length_c   8.32754651
_cell_angle_alpha   90.00000000
_cell_angle_beta   115.76039444
_cell_angle_gamma   90.00000000
_symmetry_Int_Tables_number   15
_chemical_formula_structural   Sr
_chemical_formula_sum   Sr20
_cell_volume   489.53687263
_cell_formula_units_Z   20
loop_
 _symmetry_equiv_pos_site_id
 _symmetry_equiv_pos_as_xyz
  1  'x, y, z'
  2  '-x, -y, -z'
  3  '-x, y, -z+1/2'
  4  'x, -y, z+1/2'
  5  'x+1/2, y+1/2, z'
  6  '-x+1/2, -y+1/2, -z'
  7  '-x+1/2, y+1/2, -z+1/2'
  8  'x+1/2, -y+1/2, z+1/2'
loop_
 _atom_site_type_symbol
 _atom_site_label
 _atom_site_symmetry_multiplicity
 _atom_site_fract_x
 _atom_site_fract_y
 _atom_site_fract_z
 _atom_site_occupancy
  Sr  Sr0  8  0.042626  0.321149  0.949117  1
  Sr  Sr1  8  0.242142  0.074353  0.654699  1
  Sr  Sr2  4  0.000000  0.123720  0.250000  1
