# generated using pymatgen
data_Sr
_symmetry_space_group_name_H-M   P1
_cell_length_a   5.69006564
_cell_length_b   5.87047097
_cell_length_c   10.69598340
_cell_angle_alpha   86.14019533
_cell_angle_beta   81.55888451
_cell_angle_gamma   89.43498107
_symmetry_Int_Tables_number   1
_chemical_formula_structural   Sr
_chemical_formula_sum   Sr16
_cell_volume   352.60986799
_cell_formula_units_Z   16
loop_
 _symmetry_equiv_pos_site_id
 _symmetry_equiv_pos_as_xyz
  1  'x, y, z'
loop_
 _atom_site_type_symbol
 _atom_site_label
 _atom_site_symmetry_multiplicity
 _atom_site_fract_x
 _atom_site_fract_y
 _atom_site_fract_z
 _atom_site_occupancy
  Sr  Sr0  1  0.129598  0.841987  0.573209  1
  Sr  Sr1  1  0.226753  0.155522  0.346858  1
  Sr  Sr2  1  0.247189  0.690534  0.832530  1
  Sr  Sr3  1  0.368099  0.228649  0.810208  1
  Sr  Sr4  1  0.387979  0.709636  0.315516  1
  Sr  Sr5  1  0.487365  0.851453  0.035511  1
  Sr  Sr6  1  0.496546  0.334411  0.117202  1
  Sr  Sr7  1  0.501033  0.385806  0.546294  1
  Sr  Sr8  1  0.609824  0.863682  0.626093  1
  Sr  Sr9  1  0.739080  0.024065  0.366370  1
  Sr  Sr10  1  0.751274  0.512790  0.834873  1
  Sr  Sr11  1  0.887115  0.044348  0.828906  1
  Sr  Sr12  1  0.902222  0.547141  0.326112  1
  Sr  Sr13  1  0.972195  0.936488  0.115295  1
  Sr  Sr14  1  0.988143  0.360230  0.594777  1
  Sr  Sr15  1  0.998427  0.415073  0.057747  1
