# generated using pymatgen
data_Sr
_symmetry_space_group_name_H-M   P1
_cell_length_a   5.80487963
_cell_length_b   7.99997267
_cell_length_c   8.04904469
_cell_angle_alpha   118.57837975
_cell_angle_beta   99.73102395
_cell_angle_gamma   99.17605669
_symmetry_Int_Tables_number   1
_chemical_formula_structural   Sr
_chemical_formula_sum   Sr14
_cell_volume   310.80355425
_cell_formula_units_Z   14
loop_
 _symmetry_equiv_pos_site_id
 _symmetry_equiv_pos_as_xyz
  1  'x, y, z'
loop_
 _atom_site_type_symbol
 _atom_site_label
 _atom_site_symmetry_multiplicity
 _atom_site_fract_x
 _atom_site_fract_y
 _atom_site_fract_z
 _atom_site_occupancy
  Sr  Sr0  1  0.068550  0.226230  0.669708  1
  Sr  Sr1  1  0.150419  0.465985  0.479811  1
  Sr  Sr2  1  0.170123  0.682999  0.906616  1
  Sr  Sr3  1  0.236286  0.071147  0.309717  1
  Sr  Sr4  1  0.296453  0.459563  0.108405  1
  Sr  Sr5  1  0.301010  0.030932  0.902759  1
  Sr  Sr6  1  0.343909  0.835611  0.504563  1
  Sr  Sr7  1  0.622613  0.640575  0.789469  1
  Sr  Sr8  1  0.629802  0.270016  0.758733  1
  Sr  Sr9  1  0.643087  0.369175  0.364536  1
  Sr  Sr10  1  0.649625  0.925793  0.253200  1
  Sr  Sr11  1  0.823003  0.818113  0.585825  1
  Sr  Sr12  1  0.840631  0.098380  0.024885  1
  Sr  Sr13  1  0.854788  0.594850  0.153591  1
