# generated using pymatgen
data_Sr
_symmetry_space_group_name_H-M   P1
_cell_length_a   6.00639029
_cell_length_b   6.39805901
_cell_length_c   8.91015795
_cell_angle_alpha   87.75667755
_cell_angle_beta   76.88720592
_cell_angle_gamma   81.35091634
_symmetry_Int_Tables_number   1
_chemical_formula_structural   Sr
_chemical_formula_sum   Sr14
_cell_volume   329.68546971
_cell_formula_units_Z   14
loop_
 _symmetry_equiv_pos_site_id
 _symmetry_equiv_pos_as_xyz
  1  'x, y, z'
loop_
 _atom_site_type_symbol
 _atom_site_label
 _atom_site_symmetry_multiplicity
 _atom_site_fract_x
 _atom_site_fract_y
 _atom_site_fract_z
 _atom_site_occupancy
  Sr  Sr0  1  0.073815  0.611560  0.397665  1
  Sr  Sr1  1  0.137602  0.777508  0.721381  1
  Sr  Sr2  1  0.229514  0.838488  0.102442  1
  Sr  Sr3  1  0.239425  0.156895  0.549503  1
  Sr  Sr4  1  0.270687  0.381801  0.875236  1
  Sr  Sr5  1  0.490369  0.314548  0.141565  1
  Sr  Sr6  1  0.534117  0.913519  0.819258  1
  Sr  Sr7  1  0.538036  0.514219  0.479163  1
  Sr  Sr8  1  0.546925  0.926119  0.304708  1
  Sr  Sr9  1  0.761962  0.451561  0.745092  1
  Sr  Sr10  1  0.800641  0.008829  0.524272  1
  Sr  Sr11  1  0.801104  0.633058  0.074234  1
  Sr  Sr12  1  0.888694  0.080408  0.934094  1
  Sr  Sr13  1  0.981491  0.235953  0.242991  1
