# generated using pymatgen
data_Sr
_symmetry_space_group_name_H-M   P-1
_cell_length_a   5.46441989
_cell_length_b   5.92112601
_cell_length_c   6.33306502
_cell_angle_alpha   91.00625109
_cell_angle_beta   114.86553458
_cell_angle_gamma   90.50813422
_symmetry_Int_Tables_number   2
_chemical_formula_structural   Sr
_chemical_formula_sum   Sr7
_cell_volume   185.85538608
_cell_formula_units_Z   7
loop_
 _symmetry_equiv_pos_site_id
 _symmetry_equiv_pos_as_xyz
  1  'x, y, z'
  2  '-x, -y, -z'
loop_
 _atom_site_type_symbol
 _atom_site_label
 _atom_site_symmetry_multiplicity
 _atom_site_fract_x
 _atom_site_fract_y
 _atom_site_fract_z
 _atom_site_occupancy
  Sr  Sr0  2  0.107193  0.341684  0.227222  1
  Sr  Sr1  2  0.173328  0.868407  0.363339  1
  Sr  Sr2  2  0.400215  0.526674  0.755545  1
  Sr  Sr3  1  0.500000  0.000000  0.000000  1
