# generated using pymatgen
data_Sr
_symmetry_space_group_name_H-M   P1
_cell_length_a   5.79045792
_cell_length_b   5.89596060
_cell_length_c   5.94844920
_cell_angle_alpha   106.54951703
_cell_angle_beta   103.19116029
_cell_angle_gamma   117.88698541
_symmetry_Int_Tables_number   1
_chemical_formula_structural   Sr
_chemical_formula_sum   Sr5
_cell_volume   155.62114012
_cell_formula_units_Z   5
loop_
 _symmetry_equiv_pos_site_id
 _symmetry_equiv_pos_as_xyz
  1  'x, y, z'
loop_
 _atom_site_type_symbol
 _atom_site_label
 _atom_site_symmetry_multiplicity
 _atom_site_fract_x
 _atom_site_fract_y
 _atom_site_fract_z
 _atom_site_occupancy
  Sr  Sr0  1  0.144587  0.839408  0.132655  1
  Sr  Sr1  1  0.215497  0.104547  0.704560  1
  Sr  Sr2  1  0.519710  0.593860  0.305821  1
  Sr  Sr3  1  0.695077  0.994130  0.918831  1
  Sr  Sr4  1  0.836791  0.357262  0.534507  1
