# generated using pymatgen
data_Sr
_symmetry_space_group_name_H-M   P1
_cell_length_a   6.42101119
_cell_length_b   7.22193744
_cell_length_c   7.79224212
_cell_angle_alpha   94.34500372
_cell_angle_beta   99.49052789
_cell_angle_gamma   97.56483779
_symmetry_Int_Tables_number   1
_chemical_formula_structural   Sr
_chemical_formula_sum   Sr17
_cell_volume   351.53542196
_cell_formula_units_Z   17
loop_
 _symmetry_equiv_pos_site_id
 _symmetry_equiv_pos_as_xyz
  1  'x, y, z'
loop_
 _atom_site_type_symbol
 _atom_site_label
 _atom_site_symmetry_multiplicity
 _atom_site_fract_x
 _atom_site_fract_y
 _atom_site_fract_z
 _atom_site_occupancy
  Sr  Sr0  1  0.086597  0.487443  0.100874  1
  Sr  Sr1  1  0.116899  0.860015  0.327594  1
  Sr  Sr2  1  0.188497  0.972228  0.697758  1
  Sr  Sr3  1  0.263607  0.390019  0.763973  1
  Sr  Sr4  1  0.290794  0.177620  0.077471  1
  Sr  Sr5  1  0.339660  0.565218  0.451549  1
  Sr  Sr6  1  0.390260  0.748170  0.995464  1
  Sr  Sr7  1  0.457296  0.192469  0.447627  1
  Sr  Sr8  1  0.589559  0.846290  0.679973  1
  Sr  Sr9  1  0.657301  0.875894  0.308971  1
  Sr  Sr10  1  0.668961  0.486690  0.257613  1
  Sr  Sr11  1  0.690621  0.125907  0.022639  1
  Sr  Sr12  1  0.693344  0.497378  0.876182  1
  Sr  Sr13  1  0.840391  0.200217  0.696947  1
  Sr  Sr14  1  0.911801  0.615071  0.593314  1
  Sr  Sr15  1  0.954865  0.854836  0.968412  1
  Sr  Sr16  1  0.971024  0.226993  0.364228  1
