# generated using pymatgen
data_Sr
_symmetry_space_group_name_H-M   P1
_cell_length_a   5.92112544
_cell_length_b   6.01847747
_cell_length_c   8.33180474
_cell_angle_alpha   80.96434358
_cell_angle_beta   72.88959736
_cell_angle_gamma   87.08690703
_symmetry_Int_Tables_number   1
_chemical_formula_structural   Sr
_chemical_formula_sum   Sr13
_cell_volume   280.24728502
_cell_formula_units_Z   13
loop_
 _symmetry_equiv_pos_site_id
 _symmetry_equiv_pos_as_xyz
  1  'x, y, z'
loop_
 _atom_site_type_symbol
 _atom_site_label
 _atom_site_symmetry_multiplicity
 _atom_site_fract_x
 _atom_site_fract_y
 _atom_site_fract_z
 _atom_site_occupancy
  Sr  Sr0  1  0.033369  0.775829  0.341634  1
  Sr  Sr1  1  0.089300  0.557833  0.955886  1
  Sr  Sr2  1  0.162120  0.288626  0.260989  1
  Sr  Sr3  1  0.163234  0.334966  0.642633  1
  Sr  Sr4  1  0.283478  0.873724  0.684994  1
  Sr  Sr5  1  0.430013  0.179006  0.874255  1
  Sr  Sr6  1  0.477001  0.788538  0.052913  1
  Sr  Sr7  1  0.488354  0.908340  0.361158  1
  Sr  Sr8  1  0.607528  0.455851  0.451079  1
  Sr  Sr9  1  0.680786  0.333208  0.137752  1
  Sr  Sr10  1  0.742839  0.599675  0.747913  1
  Sr  Sr11  1  0.818542  0.048104  0.615165  1
  Sr  Sr12  1  0.922724  0.965379  0.025599  1
