# generated using pymatgen
data_Sr
_symmetry_space_group_name_H-M   P1
_cell_length_a   6.28273284
_cell_length_b   6.31351152
_cell_length_c   6.37868534
_cell_angle_alpha   100.68156821
_cell_angle_beta   95.03935987
_cell_angle_gamma   91.72146004
_symmetry_Int_Tables_number   1
_chemical_formula_structural   Sr
_chemical_formula_sum   Sr10
_cell_volume   247.39490543
_cell_formula_units_Z   10
loop_
 _symmetry_equiv_pos_site_id
 _symmetry_equiv_pos_as_xyz
  1  'x, y, z'
loop_
 _atom_site_type_symbol
 _atom_site_label
 _atom_site_symmetry_multiplicity
 _atom_site_fract_x
 _atom_site_fract_y
 _atom_site_fract_z
 _atom_site_occupancy
  Sr  Sr0  1  0.022441  0.955377  0.885152  1
  Sr  Sr1  1  0.097122  0.563153  0.376254  1
  Sr  Sr2  1  0.224351  0.983039  0.353590  1
  Sr  Sr3  1  0.330543  0.608040  0.888152  1
  Sr  Sr4  1  0.436996  0.160093  0.806186  1
  Sr  Sr5  1  0.493811  0.355202  0.307867  1
  Sr  Sr6  1  0.639464  0.749641  0.588346  1
  Sr  Sr7  1  0.705278  0.905438  0.192000  1
  Sr  Sr8  1  0.857927  0.432375  0.984358  1
  Sr  Sr9  1  0.900120  0.246664  0.557481  1
