# generated using pymatgen
data_Sr
_symmetry_space_group_name_H-M   P1
_cell_length_a   6.30392619
_cell_length_b   7.09259909
_cell_length_c   7.91291634
_cell_angle_alpha   78.03241181
_cell_angle_beta   67.68682311
_cell_angle_gamma   78.56418522
_symmetry_Int_Tables_number   1
_chemical_formula_structural   Sr
_chemical_formula_sum   Sr15
_cell_volume   317.38524819
_cell_formula_units_Z   15
loop_
 _symmetry_equiv_pos_site_id
 _symmetry_equiv_pos_as_xyz
  1  'x, y, z'
loop_
 _atom_site_type_symbol
 _atom_site_label
 _atom_site_symmetry_multiplicity
 _atom_site_fract_x
 _atom_site_fract_y
 _atom_site_fract_z
 _atom_site_occupancy
  Sr  Sr0  1  0.011923  0.905731  0.378633  1
  Sr  Sr1  1  0.083003  0.745526  0.072020  1
  Sr  Sr2  1  0.138067  0.607637  0.737235  1
  Sr  Sr3  1  0.225602  0.405186  0.407672  1
  Sr  Sr4  1  0.305340  0.153860  0.098581  1
  Sr  Sr5  1  0.384563  0.936051  0.721899  1
  Sr  Sr6  1  0.463574  0.748569  0.359644  1
  Sr  Sr7  1  0.507416  0.505283  0.010194  1
  Sr  Sr8  1  0.511696  0.301220  0.668742  1
  Sr  Sr9  1  0.612562  0.102292  0.314796  1
  Sr  Sr10  1  0.684598  0.877129  0.954488  1
  Sr  Sr11  1  0.751807  0.629030  0.621110  1
  Sr  Sr12  1  0.833736  0.436240  0.284732  1
  Sr  Sr13  1  0.953832  0.253054  0.954281  1
  Sr  Sr14  1  0.972756  0.120146  0.634890  1
