# generated using pymatgen
data_Sr
_symmetry_space_group_name_H-M   P1
_cell_length_a   5.67663882
_cell_length_b   6.57445854
_cell_length_c   11.26363286
_cell_angle_alpha   73.85631378
_cell_angle_beta   83.43254886
_cell_angle_gamma   64.48577452
_symmetry_Int_Tables_number   1
_chemical_formula_structural   Sr
_chemical_formula_sum   Sr17
_cell_volume   364.40640182
_cell_formula_units_Z   17
loop_
 _symmetry_equiv_pos_site_id
 _symmetry_equiv_pos_as_xyz
  1  'x, y, z'
loop_
 _atom_site_type_symbol
 _atom_site_label
 _atom_site_symmetry_multiplicity
 _atom_site_fract_x
 _atom_site_fract_y
 _atom_site_fract_z
 _atom_site_occupancy
  Sr  Sr0  1  0.001379  0.421957  0.568407  1
  Sr  Sr1  1  0.038102  0.553482  0.794866  1
  Sr  Sr2  1  0.065740  0.907685  0.509149  1
  Sr  Sr3  1  0.114131  0.998592  0.733150  1
  Sr  Sr4  1  0.191617  0.275748  0.321232  1
  Sr  Sr5  1  0.336980  0.829117  0.260414  1
  Sr  Sr6  1  0.340276  0.164471  0.988793  1
  Sr  Sr7  1  0.445902  0.670436  0.039241  1
  Sr  Sr8  1  0.477669  0.449110  0.601989  1
  Sr  Sr9  1  0.556750  0.538868  0.827585  1
  Sr  Sr10  1  0.567395  0.903399  0.542071  1
  Sr  Sr11  1  0.592051  0.016856  0.768571  1
  Sr  Sr12  1  0.635141  0.314013  0.393368  1
  Sr  Sr13  1  0.713825  0.206925  0.169096  1
  Sr  Sr14  1  0.844626  0.743841  0.310242  1
  Sr  Sr15  1  0.900700  0.082869  0.953712  1
  Sr  Sr16  1  0.981195  0.588244  0.065345  1
