# generated using pymatgen
data_Sr
_symmetry_space_group_name_H-M   P1
_cell_length_a   5.62018535
_cell_length_b   5.67426742
_cell_length_c   7.90335866
_cell_angle_alpha   93.12184196
_cell_angle_beta   110.74475360
_cell_angle_gamma   97.28930588
_symmetry_Int_Tables_number   1
_chemical_formula_structural   Sr
_chemical_formula_sum   Sr10
_cell_volume   232.44999472
_cell_formula_units_Z   10
loop_
 _symmetry_equiv_pos_site_id
 _symmetry_equiv_pos_as_xyz
  1  'x, y, z'
loop_
 _atom_site_type_symbol
 _atom_site_label
 _atom_site_symmetry_multiplicity
 _atom_site_fract_x
 _atom_site_fract_y
 _atom_site_fract_z
 _atom_site_occupancy
  Sr  Sr0  1  0.048410  0.581845  0.106781  1
  Sr  Sr1  1  0.131043  0.053291  0.010303  1
  Sr  Sr2  1  0.245023  0.333922  0.432990  1
  Sr  Sr3  1  0.407601  0.872539  0.479608  1
  Sr  Sr4  1  0.514470  0.832891  0.905239  1
  Sr  Sr5  1  0.531413  0.335033  0.821608  1
  Sr  Sr6  1  0.600922  0.461291  0.237545  1
  Sr  Sr7  1  0.795853  0.027816  0.263226  1
  Sr  Sr8  1  0.938659  0.380109  0.696313  1
  Sr  Sr9  1  0.952513  0.849636  0.616390  1
