# generated using pymatgen
data_Sr
_symmetry_space_group_name_H-M   Pm
_cell_length_a   7.85131146
_cell_length_b   3.26318519
_cell_length_c   8.96985318
_cell_angle_alpha   90.00000000
_cell_angle_beta   101.30512299
_cell_angle_gamma   90.00000000
_symmetry_Int_Tables_number   6
_chemical_formula_structural   Sr
_chemical_formula_sum   Sr10
_cell_volume   225.35120374
_cell_formula_units_Z   10
loop_
 _symmetry_equiv_pos_site_id
 _symmetry_equiv_pos_as_xyz
  1  'x, y, z'
  2  'x, -y, z'
loop_
 _atom_site_type_symbol
 _atom_site_label
 _atom_site_symmetry_multiplicity
 _atom_site_fract_x
 _atom_site_fract_y
 _atom_site_fract_z
 _atom_site_occupancy
  Sr  Sr0  1  0.031516  0.500000  0.267850  1
  Sr  Sr1  1  0.080994  0.000000  0.645885  1
  Sr  Sr2  1  0.216655  0.500000  0.980270  1
  Sr  Sr3  1  0.345308  0.500000  0.513684  1
  Sr  Sr4  1  0.396530  0.000000  0.261209  1
  Sr  Sr5  1  0.473275  0.000000  0.830939  1
  Sr  Sr6  1  0.643281  0.500000  0.102366  1
  Sr  Sr7  1  0.703594  0.500000  0.638688  1
  Sr  Sr8  1  0.768151  0.000000  0.398818  1
  Sr  Sr9  1  0.896217  0.000000  0.923141  1
