# generated using pymatgen
data_Sr
_symmetry_space_group_name_H-M   Cm
_cell_length_a   18.31792815
_cell_length_b   3.43458830
_cell_length_c   5.47845310
_cell_angle_alpha   90.00000000
_cell_angle_beta   94.37289737
_cell_angle_gamma   90.00000000
_symmetry_Int_Tables_number   8
_chemical_formula_structural   Sr
_chemical_formula_sum   Sr12
_cell_volume   343.67099485
_cell_formula_units_Z   12
loop_
 _symmetry_equiv_pos_site_id
 _symmetry_equiv_pos_as_xyz
  1  'x, y, z'
  2  'x, -y, z'
  3  'x+1/2, y+1/2, z'
  4  'x+1/2, -y+1/2, z'
loop_
 _atom_site_type_symbol
 _atom_site_label
 _atom_site_symmetry_multiplicity
 _atom_site_fract_x
 _atom_site_fract_y
 _atom_site_fract_z
 _atom_site_occupancy
  Sr  Sr0  2  0.031276  0.500000  0.013440  1
  Sr  Sr1  2  0.140052  0.000000  0.550739  1
  Sr  Sr2  2  0.192858  0.500000  0.020962  1
  Sr  Sr3  2  0.310954  0.000000  0.469868  1
  Sr  Sr4  2  0.347481  0.500000  0.919373  1
  Sr  Sr5  2  0.477141  0.000000  0.488716  1
