# generated using pymatgen
data_Sr
_symmetry_space_group_name_H-M   P1
_cell_length_a   5.50959338
_cell_length_b   5.78020140
_cell_length_c   8.48115100
_cell_angle_alpha   70.34209886
_cell_angle_beta   82.34637233
_cell_angle_gamma   89.75022004
_symmetry_Int_Tables_number   1
_chemical_formula_structural   Sr
_chemical_formula_sum   Sr13
_cell_volume   251.85101809
_cell_formula_units_Z   13
loop_
 _symmetry_equiv_pos_site_id
 _symmetry_equiv_pos_as_xyz
  1  'x, y, z'
loop_
 _atom_site_type_symbol
 _atom_site_label
 _atom_site_symmetry_multiplicity
 _atom_site_fract_x
 _atom_site_fract_y
 _atom_site_fract_z
 _atom_site_occupancy
  Sr  Sr0  1  0.098271  0.259973  0.328147  1
  Sr  Sr1  1  0.098463  0.241548  0.655783  1
  Sr  Sr2  1  0.205532  0.730265  0.640437  1
  Sr  Sr3  1  0.284599  0.474685  0.975003  1
  Sr  Sr4  1  0.405565  0.018188  0.918242  1
  Sr  Sr5  1  0.463422  0.918216  0.255543  1
  Sr  Sr6  1  0.582223  0.470992  0.250397  1
  Sr  Sr7  1  0.608086  0.046999  0.502884  1
  Sr  Sr8  1  0.613204  0.415659  0.624977  1
  Sr  Sr9  1  0.744828  0.738838  0.777613  1
  Sr  Sr10  1  0.803560  0.288269  0.013601  1
  Sr  Sr11  1  0.947907  0.832372  0.021969  1
  Sr  Sr12  1  0.958563  0.754227  0.360754  1
