# generated using pymatgen
data_Sr
_symmetry_space_group_name_H-M   P1
_cell_length_a   5.93064079
_cell_length_b   5.94159143
_cell_length_c   8.38705272
_cell_angle_alpha   72.28130822
_cell_angle_beta   86.97805140
_cell_angle_gamma   62.16023083
_symmetry_Int_Tables_number   1
_chemical_formula_structural   Sr
_chemical_formula_sum   Sr10
_cell_volume   247.52841230
_cell_formula_units_Z   10
loop_
 _symmetry_equiv_pos_site_id
 _symmetry_equiv_pos_as_xyz
  1  'x, y, z'
loop_
 _atom_site_type_symbol
 _atom_site_label
 _atom_site_symmetry_multiplicity
 _atom_site_fract_x
 _atom_site_fract_y
 _atom_site_fract_z
 _atom_site_occupancy
  Sr  Sr0  1  0.097974  0.207243  0.902417  1
  Sr  Sr1  1  0.150842  0.947118  0.453453  1
  Sr  Sr2  1  0.189380  0.360885  0.545039  1
  Sr  Sr3  1  0.366288  0.622609  0.832033  1
  Sr  Sr4  1  0.373340  0.629820  0.204416  1
  Sr  Sr5  1  0.671355  0.090749  0.121796  1
  Sr  Sr6  1  0.671686  0.363915  0.576591  1
  Sr  Sr7  1  0.696304  0.869342  0.474708  1
  Sr  Sr8  1  0.758551  0.853433  0.824607  1
  Sr  Sr9  1  0.933831  0.482517  0.187372  1
