# generated using pymatgen
data_Sr
_symmetry_space_group_name_H-M   P-1
_cell_length_a   5.80051905
_cell_length_b   5.98164612
_cell_length_c   6.71666813
_cell_angle_alpha   97.14189984
_cell_angle_beta   98.46591169
_cell_angle_gamma   94.73645596
_symmetry_Int_Tables_number   2
_chemical_formula_structural   Sr
_chemical_formula_sum   Sr10
_cell_volume   227.50672626
_cell_formula_units_Z   10
loop_
 _symmetry_equiv_pos_site_id
 _symmetry_equiv_pos_as_xyz
  1  'x, y, z'
  2  '-x, -y, -z'
loop_
 _atom_site_type_symbol
 _atom_site_label
 _atom_site_symmetry_multiplicity
 _atom_site_fract_x
 _atom_site_fract_y
 _atom_site_fract_z
 _atom_site_occupancy
  Sr  Sr0  2  0.100805  0.992372  0.715373  1
  Sr  Sr1  2  0.199971  0.420435  0.616602  1
  Sr  Sr2  2  0.208854  0.658234  0.007704  1
  Sr  Sr3  2  0.353407  0.211672  0.125249  1
  Sr  Sr4  2  0.378338  0.752258  0.418519  1
