# generated using pymatgen
data_Sr
_symmetry_space_group_name_H-M   P1
_cell_length_a   8.10717480
_cell_length_b   8.32470957
_cell_length_c   8.47668969
_cell_angle_alpha   102.36508586
_cell_angle_beta   103.19095493
_cell_angle_gamma   118.51571401
_symmetry_Int_Tables_number   1
_chemical_formula_structural   Sr
_chemical_formula_sum   Sr21
_cell_volume   453.18185147
_cell_formula_units_Z   21
loop_
 _symmetry_equiv_pos_site_id
 _symmetry_equiv_pos_as_xyz
  1  'x, y, z'
loop_
 _atom_site_type_symbol
 _atom_site_label
 _atom_site_symmetry_multiplicity
 _atom_site_fract_x
 _atom_site_fract_y
 _atom_site_fract_z
 _atom_site_occupancy
  Sr  Sr0  1  0.010560  0.624871  0.296754  1
  Sr  Sr1  1  0.108787  0.585610  0.968527  1
  Sr  Sr2  1  0.152189  0.710300  0.676829  1
  Sr  Sr3  1  0.192317  0.024663  0.995228  1
  Sr  Sr4  1  0.240276  0.057118  0.352235  1
  Sr  Sr5  1  0.280937  0.100544  0.707230  1
  Sr  Sr6  1  0.318027  0.428234  0.596207  1
  Sr  Sr7  1  0.336105  0.553925  0.311146  1
  Sr  Sr8  1  0.425550  0.503656  0.998138  1
  Sr  Sr9  1  0.499095  0.948864  0.141849  1
  Sr  Sr10  1  0.523583  0.954168  0.521203  1
  Sr  Sr11  1  0.565357  0.846548  0.816987  1
  Sr  Sr12  1  0.577183  0.383916  0.260932  1
  Sr  Sr13  1  0.674537  0.262733  0.961358  1
  Sr  Sr14  1  0.681877  0.401987  0.656855  1
  Sr  Sr15  1  0.798165  0.758771  0.588966  1
  Sr  Sr16  1  0.813080  0.700364  0.972520  1
  Sr  Sr17  1  0.824767  0.894077  0.312728  1
  Sr  Sr18  1  0.899436  0.286592  0.461300  1
  Sr  Sr19  1  0.967556  0.182319  0.130672  1
  Sr  Sr20  1  0.971259  0.188496  0.764850  1
