# generated using pymatgen
data_Sr
_symmetry_space_group_name_H-M   Pmmm
_cell_length_a   4.78639298
_cell_length_b   6.52566490
_cell_length_c   9.81611580
_cell_angle_alpha   90.00000000
_cell_angle_beta   90.00000000
_cell_angle_gamma   90.00000000
_symmetry_Int_Tables_number   47
_chemical_formula_structural   Sr
_chemical_formula_sum   Sr13
_cell_volume   306.60045461
_cell_formula_units_Z   13
loop_
 _symmetry_equiv_pos_site_id
 _symmetry_equiv_pos_as_xyz
  1  'x, y, z'
  2  '-x, -y, -z'
  3  '-x, -y, z'
  4  'x, y, -z'
  5  'x, -y, -z'
  6  '-x, y, z'
  7  '-x, y, -z'
  8  'x, -y, z'
loop_
 _atom_site_type_symbol
 _atom_site_label
 _atom_site_symmetry_multiplicity
 _atom_site_fract_x
 _atom_site_fract_y
 _atom_site_fract_z
 _atom_site_occupancy
  Sr  Sr0  4  0.500000  0.223674  0.313792  1
  Sr  Sr1  2  0.000000  0.000000  0.155456  1
  Sr  Sr2  2  0.000000  0.500000  0.176527  1
  Sr  Sr3  2  0.500000  0.263151  0.000000  1
  Sr  Sr4  1  0.000000  0.000000  0.500000  1
  Sr  Sr5  1  0.000000  0.500000  0.500000  1
  Sr  Sr6  1  0.500000  0.500000  0.500000  1
