# generated using pymatgen
data_Sr
_symmetry_space_group_name_H-M   P-1
_cell_length_a   5.89706788
_cell_length_b   6.47553703
_cell_length_c   10.14117004
_cell_angle_alpha   72.63090007
_cell_angle_beta   89.74677090
_cell_angle_gamma   73.83336218
_symmetry_Int_Tables_number   2
_chemical_formula_structural   Sr
_chemical_formula_sum   Sr16
_cell_volume   353.67309186
_cell_formula_units_Z   16
loop_
 _symmetry_equiv_pos_site_id
 _symmetry_equiv_pos_as_xyz
  1  'x, y, z'
  2  '-x, -y, -z'
loop_
 _atom_site_type_symbol
 _atom_site_label
 _atom_site_symmetry_multiplicity
 _atom_site_fract_x
 _atom_site_fract_y
 _atom_site_fract_z
 _atom_site_occupancy
  Sr  Sr0  2  0.062735  0.038873  0.361123  1
  Sr  Sr1  2  0.099682  0.545259  0.370596  1
  Sr  Sr2  2  0.211434  0.240613  0.890643  1
  Sr  Sr3  2  0.212759  0.708460  0.920929  1
  Sr  Sr4  2  0.319307  0.879665  0.151653  1
  Sr  Sr5  2  0.333656  0.306907  0.164311  1
  Sr  Sr6  2  0.365656  0.598953  0.622357  1
  Sr  Sr7  2  0.366719  0.098706  0.602536  1
