# generated using pymatgen
data_Sr
_symmetry_space_group_name_H-M   P-1
_cell_length_a   5.93019455
_cell_length_b   8.17770471
_cell_length_c   9.86974803
_cell_angle_alpha   72.22325773
_cell_angle_beta   89.69188104
_cell_angle_gamma   74.72703508
_symmetry_Int_Tables_number   2
_chemical_formula_structural   Sr
_chemical_formula_sum   Sr20
_cell_volume   438.21674648
_cell_formula_units_Z   20
loop_
 _symmetry_equiv_pos_site_id
 _symmetry_equiv_pos_as_xyz
  1  'x, y, z'
  2  '-x, -y, -z'
loop_
 _atom_site_type_symbol
 _atom_site_label
 _atom_site_symmetry_multiplicity
 _atom_site_fract_x
 _atom_site_fract_y
 _atom_site_fract_z
 _atom_site_occupancy
  Sr  Sr0  2  0.003298  0.436647  0.650942  1
  Sr  Sr1  2  0.024084  0.983123  0.256884  1
  Sr  Sr2  2  0.095257  0.624768  0.892171  1
  Sr  Sr3  2  0.188384  0.200005  0.925365  1
  Sr  Sr4  2  0.253576  0.747762  0.601544  1
  Sr  Sr5  2  0.254449  0.164303  0.471610  1
  Sr  Sr6  2  0.350398  0.780467  0.053005  1
  Sr  Sr7  2  0.375411  0.406472  0.170561  1
  Sr  Sr8  2  0.452491  0.655094  0.369995  1
  Sr  Sr9  2  0.488331  0.977039  0.765204  1
