# generated using pymatgen
data_Sr
_symmetry_space_group_name_H-M   P1
_cell_length_a   5.91801515
_cell_length_b   6.15842096
_cell_length_c   8.06904583
_cell_angle_alpha   73.24507871
_cell_angle_beta   76.95056113
_cell_angle_gamma   89.15773033
_symmetry_Int_Tables_number   1
_chemical_formula_structural   Sr
_chemical_formula_sum   Sr11
_cell_volume   273.92406764
_cell_formula_units_Z   11
loop_
 _symmetry_equiv_pos_site_id
 _symmetry_equiv_pos_as_xyz
  1  'x, y, z'
loop_
 _atom_site_type_symbol
 _atom_site_label
 _atom_site_symmetry_multiplicity
 _atom_site_fract_x
 _atom_site_fract_y
 _atom_site_fract_z
 _atom_site_occupancy
  Sr  Sr0  1  0.076785  0.506387  0.195322  1
  Sr  Sr1  1  0.106942  0.503763  0.794042  1
  Sr  Sr2  1  0.201744  0.967571  0.966431  1
  Sr  Sr3  1  0.233386  0.043874  0.316511  1
  Sr  Sr4  1  0.417678  0.466586  0.454795  1
  Sr  Sr5  1  0.486667  0.927607  0.622305  1
  Sr  Sr6  1  0.570880  0.369668  0.889814  1
  Sr  Sr7  1  0.647752  0.757762  0.050692  1
  Sr  Sr8  1  0.753988  0.146658  0.220151  1
  Sr  Sr9  1  0.853809  0.643505  0.492135  1
  Sr  Sr10  1  0.927781  0.083137  0.654930  1
