# generated using pymatgen
data_Sr
_symmetry_space_group_name_H-M   Cm
_cell_length_a   5.69560764
_cell_length_b   10.60734729
_cell_length_c   8.44227687
_cell_angle_alpha   90.00000000
_cell_angle_beta   107.66160825
_cell_angle_gamma   90.00000000
_symmetry_Int_Tables_number   8
_chemical_formula_structural   Sr
_chemical_formula_sum   Sr22
_cell_volume   486.00172681
_cell_formula_units_Z   22
loop_
 _symmetry_equiv_pos_site_id
 _symmetry_equiv_pos_as_xyz
  1  'x, y, z'
  2  'x, -y, z'
  3  'x+1/2, y+1/2, z'
  4  'x+1/2, -y+1/2, z'
loop_
 _atom_site_type_symbol
 _atom_site_label
 _atom_site_symmetry_multiplicity
 _atom_site_fract_x
 _atom_site_fract_y
 _atom_site_fract_z
 _atom_site_occupancy
  Sr  Sr0  4  0.029624  0.287610  0.545801  1
  Sr  Sr1  4  0.191809  0.204975  0.878276  1
  Sr  Sr2  4  0.388528  0.292646  0.218842  1
  Sr  Sr3  2  0.056955  0.500000  0.959561  1
  Sr  Sr4  2  0.180272  0.500000  0.355435  1
  Sr  Sr5  2  0.185838  0.000000  0.160722  1
  Sr  Sr6  2  0.218231  0.000000  0.557036  1
  Sr  Sr7  2  0.341633  0.500000  0.739202  1
