# generated using pymatgen
data_Sr
_symmetry_space_group_name_H-M   P1
_cell_length_a   5.96824007
_cell_length_b   8.13134545
_cell_length_c   8.76364590
_cell_angle_alpha   105.27114137
_cell_angle_beta   92.44855331
_cell_angle_gamma   102.30692782
_symmetry_Int_Tables_number   1
_chemical_formula_structural   Sr
_chemical_formula_sum   Sr18
_cell_volume   398.64139260
_cell_formula_units_Z   18
loop_
 _symmetry_equiv_pos_site_id
 _symmetry_equiv_pos_as_xyz
  1  'x, y, z'
loop_
 _atom_site_type_symbol
 _atom_site_label
 _atom_site_symmetry_multiplicity
 _atom_site_fract_x
 _atom_site_fract_y
 _atom_site_fract_z
 _atom_site_occupancy
  Sr  Sr0  1  0.022894  0.396827  0.713989  1
  Sr  Sr1  1  0.104282  0.311192  0.013289  1
  Sr  Sr2  1  0.127786  0.372258  0.370608  1
  Sr  Sr3  1  0.152077  0.965685  0.861144  1
  Sr  Sr4  1  0.205365  0.012508  0.222376  1
  Sr  Sr5  1  0.296762  0.959498  0.524009  1
  Sr  Sr6  1  0.339194  0.700867  0.987927  1
  Sr  Sr7  1  0.426932  0.676684  0.645614  1
  Sr  Sr8  1  0.471536  0.320343  0.762843  1
  Sr  Sr9  1  0.526050  0.704015  0.299690  1
  Sr  Sr10  1  0.559601  0.347312  0.127914  1
  Sr  Sr11  1  0.603728  0.314737  0.442206  1
  Sr  Sr12  1  0.670798  0.047158  0.856252  1
  Sr  Sr13  1  0.731112  0.017051  0.185622  1
  Sr  Sr14  1  0.786456  0.667912  0.907066  1
  Sr  Sr15  1  0.851669  0.052948  0.549841  1
  Sr  Sr16  1  0.870370  0.675926  0.547077  1
  Sr  Sr17  1  0.979397  0.617885  0.190772  1
