# generated using pymatgen
data_Sr
_symmetry_space_group_name_H-M   P-1
_cell_length_a   6.11440796
_cell_length_b   6.24135393
_cell_length_c   7.85505680
_cell_angle_alpha   70.38696052
_cell_angle_beta   75.09012891
_cell_angle_gamma   83.89130181
_symmetry_Int_Tables_number   2
_chemical_formula_structural   Sr
_chemical_formula_sum   Sr13
_cell_volume   272.80079368
_cell_formula_units_Z   13
loop_
 _symmetry_equiv_pos_site_id
 _symmetry_equiv_pos_as_xyz
  1  'x, y, z'
  2  '-x, -y, -z'
loop_
 _atom_site_type_symbol
 _atom_site_label
 _atom_site_symmetry_multiplicity
 _atom_site_fract_x
 _atom_site_fract_y
 _atom_site_fract_z
 _atom_site_occupancy
  Sr  Sr0  2  0.054951  0.380069  0.870339  1
  Sr  Sr1  2  0.185207  0.149411  0.215567  1
  Sr  Sr2  2  0.198784  0.091236  0.610189  1
  Sr  Sr3  2  0.311612  0.901031  0.959426  1
  Sr  Sr4  2  0.368240  0.735777  0.471418  1
  Sr  Sr5  2  0.488344  0.510176  0.190541  1
  Sr  Sr6  1  0.000000  0.500000  0.500000  1
