# generated using pymatgen
data_Sr
_symmetry_space_group_name_H-M   P1
_cell_length_a   6.39048690
_cell_length_b   7.85701380
_cell_length_c   8.99856548
_cell_angle_alpha   95.40592433
_cell_angle_beta   92.04216335
_cell_angle_gamma   110.30057053
_symmetry_Int_Tables_number   1
_chemical_formula_structural   Sr
_chemical_formula_sum   Sr20
_cell_volume   420.73909594
_cell_formula_units_Z   20
loop_
 _symmetry_equiv_pos_site_id
 _symmetry_equiv_pos_as_xyz
  1  'x, y, z'
loop_
 _atom_site_type_symbol
 _atom_site_label
 _atom_site_symmetry_multiplicity
 _atom_site_fract_x
 _atom_site_fract_y
 _atom_site_fract_z
 _atom_site_occupancy
  Sr  Sr0  1  0.064653  0.431080  0.493020  1
  Sr  Sr1  1  0.093661  0.181169  0.893866  1
  Sr  Sr2  1  0.150617  0.556255  0.901690  1
  Sr  Sr3  1  0.218518  0.148953  0.591808  1
  Sr  Sr4  1  0.266853  0.370559  0.234821  1
  Sr  Sr5  1  0.269949  0.013922  0.145390  1
  Sr  Sr6  1  0.283234  0.818179  0.462352  1
  Sr  Sr7  1  0.416611  0.980483  0.853044  1
  Sr  Sr8  1  0.464889  0.536767  0.686461  1
  Sr  Sr9  1  0.476138  0.755090  0.191658  1
  Sr  Sr10  1  0.572247  0.437818  0.990612  1
  Sr  Sr11  1  0.592795  0.215165  0.398411  1
  Sr  Sr12  1  0.681403  0.596759  0.401110  1
  Sr  Sr13  1  0.697740  0.926031  0.614768  1
  Sr  Sr14  1  0.751831  0.304885  0.724456  1
  Sr  Sr15  1  0.762384  0.832192  0.946720  1
  Sr  Sr16  1  0.784385  0.213563  0.112637  1
  Sr  Sr17  1  0.905662  0.992743  0.327409  1
  Sr  Sr18  1  0.971211  0.625875  0.171863  1
  Sr  Sr19  1  0.995676  0.734321  0.696371  1
