# generated using pymatgen
data_Sr
_symmetry_space_group_name_H-M   Pc
_cell_length_a   5.79360927
_cell_length_b   5.99119765
_cell_length_c   10.47395752
_cell_angle_alpha   90.00000000
_cell_angle_beta   116.59512112
_cell_angle_gamma   90.00000000
_symmetry_Int_Tables_number   7
_chemical_formula_structural   Sr
_chemical_formula_sum   Sr14
_cell_volume   325.09075117
_cell_formula_units_Z   14
loop_
 _symmetry_equiv_pos_site_id
 _symmetry_equiv_pos_as_xyz
  1  'x, y, z'
  2  'x, -y, z+1/2'
loop_
 _atom_site_type_symbol
 _atom_site_label
 _atom_site_symmetry_multiplicity
 _atom_site_fract_x
 _atom_site_fract_y
 _atom_site_fract_z
 _atom_site_occupancy
  Sr  Sr0  2  0.119636  0.490502  0.325039  1
  Sr  Sr1  2  0.119671  0.017214  0.024339  1
  Sr  Sr2  2  0.311317  0.489920  0.623360  1
  Sr  Sr3  2  0.342039  0.001260  0.334520  1
  Sr  Sr4  2  0.722297  0.350287  0.911053  1
  Sr  Sr5  2  0.727805  0.282674  0.583329  1
  Sr  Sr6  2  0.731808  0.154070  0.221885  1
