# generated using pymatgen
data_Sr
_symmetry_space_group_name_H-M   P-1
_cell_length_a   6.00492450
_cell_length_b   6.17952362
_cell_length_c   6.57898823
_cell_angle_alpha   106.26497948
_cell_angle_beta   105.77180157
_cell_angle_gamma   112.57969824
_symmetry_Int_Tables_number   2
_chemical_formula_structural   Sr
_chemical_formula_sum   Sr8
_cell_volume   195.57618558
_cell_formula_units_Z   8
loop_
 _symmetry_equiv_pos_site_id
 _symmetry_equiv_pos_as_xyz
  1  'x, y, z'
  2  '-x, -y, -z'
loop_
 _atom_site_type_symbol
 _atom_site_label
 _atom_site_symmetry_multiplicity
 _atom_site_fract_x
 _atom_site_fract_y
 _atom_site_fract_z
 _atom_site_occupancy
  Sr  Sr0  2  0.179385  0.787579  0.869164  1
  Sr  Sr1  2  0.190397  0.771760  0.361944  1
  Sr  Sr2  2  0.313750  0.270222  0.293968  1
  Sr  Sr3  2  0.327580  0.293508  0.765975  1
