# generated using pymatgen
data_Sr
_symmetry_space_group_name_H-M   P-1
_cell_length_a   5.47463647
_cell_length_b   5.62768363
_cell_length_c   9.54339696
_cell_angle_alpha   86.03183113
_cell_angle_beta   87.94032289
_cell_angle_gamma   73.57685690
_symmetry_Int_Tables_number   2
_chemical_formula_structural   Sr
_chemical_formula_sum   Sr13
_cell_volume   281.31380779
_cell_formula_units_Z   13
loop_
 _symmetry_equiv_pos_site_id
 _symmetry_equiv_pos_as_xyz
  1  'x, y, z'
  2  '-x, -y, -z'
loop_
 _atom_site_type_symbol
 _atom_site_label
 _atom_site_symmetry_multiplicity
 _atom_site_fract_x
 _atom_site_fract_y
 _atom_site_fract_z
 _atom_site_occupancy
  Sr  Sr0  2  0.166181  0.349673  0.117781  1
  Sr  Sr1  2  0.169910  0.798563  0.393116  1
  Sr  Sr2  2  0.236661  0.509792  0.686587  1
  Sr  Sr3  2  0.270201  0.990725  0.764507  1
  Sr  Sr4  2  0.332282  0.220059  0.412489  1
  Sr  Sr5  2  0.438679  0.707767  0.097929  1
  Sr  Sr6  1  0.000000  0.000000  0.000000  1
