# generated using pymatgen
data_Sr
_symmetry_space_group_name_H-M   P1
_cell_length_a   6.37139251
_cell_length_b   6.40485277
_cell_length_c   7.89157210
_cell_angle_alpha   74.16671464
_cell_angle_beta   70.63845004
_cell_angle_gamma   88.02648625
_symmetry_Int_Tables_number   1
_chemical_formula_structural   Sr
_chemical_formula_sum   Sr12
_cell_volume   291.74077610
_cell_formula_units_Z   12
loop_
 _symmetry_equiv_pos_site_id
 _symmetry_equiv_pos_as_xyz
  1  'x, y, z'
loop_
 _atom_site_type_symbol
 _atom_site_label
 _atom_site_symmetry_multiplicity
 _atom_site_fract_x
 _atom_site_fract_y
 _atom_site_fract_z
 _atom_site_occupancy
  Sr  Sr0  1  0.189874  0.121694  0.285796  1
  Sr  Sr1  1  0.191856  0.498273  0.917019  1
  Sr  Sr2  1  0.197012  0.433621  0.504904  1
  Sr  Sr3  1  0.342856  0.005441  0.771235  1
  Sr  Sr4  1  0.486265  0.837365  0.083467  1
  Sr  Sr5  1  0.527208  0.757730  0.505305  1
  Sr  Sr6  1  0.621041  0.421570  0.039363  1
  Sr  Sr7  1  0.671012  0.223566  0.391055  1
  Sr  Sr8  1  0.735470  0.301107  0.694577  1
  Sr  Sr9  1  0.923797  0.816811  0.663532  1
  Sr  Sr10  1  0.928481  0.054246  0.019280  1
  Sr  Sr11  1  0.954111  0.639109  0.247701  1
