# generated using pymatgen
data_Sr
_symmetry_space_group_name_H-M   P1
_cell_length_a   5.47511822
_cell_length_b   7.82530099
_cell_length_c   9.16402043
_cell_angle_alpha   71.11941602
_cell_angle_beta   87.03320336
_cell_angle_gamma   80.11303710
_symmetry_Int_Tables_number   1
_chemical_formula_structural   Sr
_chemical_formula_sum   Sr20
_cell_volume   365.98166443
_cell_formula_units_Z   20
loop_
 _symmetry_equiv_pos_site_id
 _symmetry_equiv_pos_as_xyz
  1  'x, y, z'
loop_
 _atom_site_type_symbol
 _atom_site_label
 _atom_site_symmetry_multiplicity
 _atom_site_fract_x
 _atom_site_fract_y
 _atom_site_fract_z
 _atom_site_occupancy
  Sr  Sr0  1  0.013369  0.566631  0.682279  1
  Sr  Sr1  1  0.050096  0.482516  0.132268  1
  Sr  Sr2  1  0.053843  0.020084  0.474481  1
  Sr  Sr3  1  0.085956  0.841022  0.067737  1
  Sr  Sr4  1  0.185265  0.792784  0.792702  1
  Sr  Sr5  1  0.217462  0.712819  0.391879  1
  Sr  Sr6  1  0.225174  0.118289  0.169420  1
  Sr  Sr7  1  0.251101  0.159890  0.765594  1
  Sr  Sr8  1  0.361643  0.394359  0.916464  1
  Sr  Sr9  1  0.413739  0.235712  0.464945  1
  Sr  Sr10  1  0.509887  0.532982  0.205399  1
  Sr  Sr11  1  0.527175  0.469165  0.608595  1
  Sr  Sr12  1  0.573566  0.934396  0.014392  1
  Sr  Sr13  1  0.588112  0.830468  0.593201  1
  Sr  Sr14  1  0.682957  0.627440  0.907822  1
  Sr  Sr15  1  0.707419  0.163542  0.236107  1
  Sr  Sr16  1  0.719710  0.795799  0.314512  1
  Sr  Sr17  1  0.774715  0.078332  0.711072  1
  Sr  Sr18  1  0.837490  0.246884  0.940651  1
  Sr  Sr19  1  0.934900  0.410775  0.428292  1
