# generated using pymatgen
data_Sr
_symmetry_space_group_name_H-M   Cc
_cell_length_a   9.90993705
_cell_length_b   6.23016022
_cell_length_c   5.75664760
_cell_angle_alpha   90.00000000
_cell_angle_beta   99.01424463
_cell_angle_gamma   90.00000000
_symmetry_Int_Tables_number   9
_chemical_formula_structural   Sr
_chemical_formula_sum   Sr12
_cell_volume   351.02865317
_cell_formula_units_Z   12
loop_
 _symmetry_equiv_pos_site_id
 _symmetry_equiv_pos_as_xyz
  1  'x, y, z'
  2  'x, -y, z+1/2'
  3  'x+1/2, y+1/2, z'
  4  'x+1/2, -y+1/2, z+1/2'
loop_
 _atom_site_type_symbol
 _atom_site_label
 _atom_site_symmetry_multiplicity
 _atom_site_fract_x
 _atom_site_fract_y
 _atom_site_fract_z
 _atom_site_occupancy
  Sr  Sr0  4  0.039075  0.433195  0.263543  1
  Sr  Sr1  4  0.238138  0.094307  0.016410  1
  Sr  Sr2  4  0.394893  0.446479  0.406632  1
