# generated using pymatgen
data_Sr
_symmetry_space_group_name_H-M   Cm
_cell_length_a   8.84756542
_cell_length_b   14.10097185
_cell_length_c   5.41349823
_cell_angle_alpha   90.00000000
_cell_angle_beta   114.19022402
_cell_angle_gamma   90.00000000
_symmetry_Int_Tables_number   8
_chemical_formula_structural   Sr
_chemical_formula_sum   Sr26
_cell_volume   616.07864561
_cell_formula_units_Z   26
loop_
 _symmetry_equiv_pos_site_id
 _symmetry_equiv_pos_as_xyz
  1  'x, y, z'
  2  'x, -y, z'
  3  'x+1/2, y+1/2, z'
  4  'x+1/2, -y+1/2, z'
loop_
 _atom_site_type_symbol
 _atom_site_label
 _atom_site_symmetry_multiplicity
 _atom_site_fract_x
 _atom_site_fract_y
 _atom_site_fract_z
 _atom_site_occupancy
  Sr  Sr0  4  0.098591  0.135794  0.624401  1
  Sr  Sr1  4  0.129627  0.379350  0.794768  1
  Sr  Sr2  4  0.288975  0.736555  0.430944  1
  Sr  Sr3  4  0.394327  0.106666  0.171661  1
  Sr  Sr4  4  0.469242  0.284304  0.012712  1
  Sr  Sr5  2  0.256602  0.500000  0.340769  1
  Sr  Sr6  2  0.325809  0.000000  0.588006  1
  Sr  Sr7  2  0.499655  0.500000  0.032697  1
