# generated using pymatgen
data_Sr
_symmetry_space_group_name_H-M   P-1
_cell_length_a   6.07642906
_cell_length_b   6.43759956
_cell_length_c   6.61283882
_cell_angle_alpha   91.69039472
_cell_angle_beta   111.58965507
_cell_angle_gamma   102.94125844
_symmetry_Int_Tables_number   2
_chemical_formula_structural   Sr
_chemical_formula_sum   Sr9
_cell_volume   232.62685111
_cell_formula_units_Z   9
loop_
 _symmetry_equiv_pos_site_id
 _symmetry_equiv_pos_as_xyz
  1  'x, y, z'
  2  '-x, -y, -z'
loop_
 _atom_site_type_symbol
 _atom_site_label
 _atom_site_symmetry_multiplicity
 _atom_site_fract_x
 _atom_site_fract_y
 _atom_site_fract_z
 _atom_site_occupancy
  Sr  Sr0  2  0.021998  0.717760  0.154057  1
  Sr  Sr1  2  0.219351  0.914922  0.797431  1
  Sr  Sr2  2  0.364391  0.171091  0.368850  1
  Sr  Sr3  2  0.457181  0.573119  0.191536  1
  Sr  Sr4  1  0.000000  0.500000  0.500000  1
