# generated using pymatgen
data_Sr
_symmetry_space_group_name_H-M   P1
_cell_length_a   6.28129034
_cell_length_b   8.35678256
_cell_length_c   8.49891306
_cell_angle_alpha   103.03495879
_cell_angle_beta   90.72807056
_cell_angle_gamma   110.00636708
_symmetry_Int_Tables_number   1
_chemical_formula_structural   Sr
_chemical_formula_sum   Sr19
_cell_volume   406.42393940
_cell_formula_units_Z   19
loop_
 _symmetry_equiv_pos_site_id
 _symmetry_equiv_pos_as_xyz
  1  'x, y, z'
loop_
 _atom_site_type_symbol
 _atom_site_label
 _atom_site_symmetry_multiplicity
 _atom_site_fract_x
 _atom_site_fract_y
 _atom_site_fract_z
 _atom_site_occupancy
  Sr  Sr0  1  0.042236  0.810810  0.019771  1
  Sr  Sr1  1  0.078247  0.409158  0.776059  1
  Sr  Sr2  1  0.180376  0.716595  0.348666  1
  Sr  Sr3  1  0.187550  0.107799  0.575044  1
  Sr  Sr4  1  0.309490  0.470725  0.489326  1
  Sr  Sr5  1  0.319156  0.419369  0.121763  1
  Sr  Sr6  1  0.339995  0.856605  0.673364  1
  Sr  Sr7  1  0.435444  0.058253  0.257211  1
  Sr  Sr8  1  0.476350  0.138261  0.944748  1
  Sr  Sr9  1  0.482717  0.747357  0.944358  1
  Sr  Sr10  1  0.549328  0.437456  0.787970  1
  Sr  Sr11  1  0.688577  0.165506  0.571647  1
  Sr  Sr12  1  0.690631  0.777488  0.251124  1
  Sr  Sr13  1  0.717441  0.434829  0.375542  1
  Sr  Sr14  1  0.748617  0.848597  0.581146  1
  Sr  Sr15  1  0.876719  0.469321  0.069607  1
  Sr  Sr16  1  0.900680  0.072281  0.912113  1
  Sr  Sr17  1  0.922259  0.644096  0.687074  1
  Sr  Sr18  1  0.968521  0.160672  0.284188  1
