# generated using pymatgen
data_Sr
_symmetry_space_group_name_H-M   P1
_cell_length_a   4.41954892
_cell_length_b   5.71537600
_cell_length_c   6.31548684
_cell_angle_alpha   95.92688305
_cell_angle_beta   93.21385939
_cell_angle_gamma   105.32286770
_symmetry_Int_Tables_number   1
_chemical_formula_structural   Sr
_chemical_formula_sum   Sr7
_cell_volume   152.45333547
_cell_formula_units_Z   7
loop_
 _symmetry_equiv_pos_site_id
 _symmetry_equiv_pos_as_xyz
  1  'x, y, z'
loop_
 _atom_site_type_symbol
 _atom_site_label
 _atom_site_symmetry_multiplicity
 _atom_site_fract_x
 _atom_site_fract_y
 _atom_site_fract_z
 _atom_site_occupancy
  Sr  Sr0  1  0.156927  0.832882  0.539151  1
  Sr  Sr1  1  0.243703  0.111375  0.092964  1
  Sr  Sr2  1  0.332207  0.410405  0.662143  1
  Sr  Sr3  1  0.589056  0.531673  0.313320  1
  Sr  Sr4  1  0.648451  0.847123  0.914120  1
  Sr  Sr5  1  0.755767  0.120110  0.454920  1
  Sr  Sr6  1  0.965010  0.482909  0.988914  1
