# generated using pymatgen
data_Sr
_symmetry_space_group_name_H-M   P1
_cell_length_a   5.81254496
_cell_length_b   5.82293930
_cell_length_c   7.06031410
_cell_angle_alpha   65.64759838
_cell_angle_beta   80.96819388
_cell_angle_gamma   68.96851133
_symmetry_Int_Tables_number   1
_chemical_formula_structural   Sr
_chemical_formula_sum   Sr8
_cell_volume   203.18860863
_cell_formula_units_Z   8
loop_
 _symmetry_equiv_pos_site_id
 _symmetry_equiv_pos_as_xyz
  1  'x, y, z'
loop_
 _atom_site_type_symbol
 _atom_site_label
 _atom_site_symmetry_multiplicity
 _atom_site_fract_x
 _atom_site_fract_y
 _atom_site_fract_z
 _atom_site_occupancy
  Sr  Sr0  1  0.158330  0.440390  0.346728  1
  Sr  Sr1  1  0.276472  0.282226  0.915282  1
  Sr  Sr2  1  0.278078  0.851367  0.772812  1
  Sr  Sr3  1  0.344736  0.897244  0.342431  1
  Sr  Sr4  1  0.668886  0.551725  0.099976  1
  Sr  Sr5  1  0.675311  0.289560  0.578435  1
  Sr  Sr6  1  0.838891  0.033909  0.054223  1
  Sr  Sr7  1  0.842118  0.726416  0.643328  1
