# generated using pymatgen
data_Sr
_symmetry_space_group_name_H-M   C2
_cell_length_a   5.23948136
_cell_length_b   9.21413533
_cell_length_c   14.30061260
_cell_angle_alpha   90.00000000
_cell_angle_beta   93.68900205
_cell_angle_gamma   90.00000000
_symmetry_Int_Tables_number   5
_chemical_formula_structural   Sr
_chemical_formula_sum   Sr38
_cell_volume   688.96431906
_cell_formula_units_Z   38
loop_
 _symmetry_equiv_pos_site_id
 _symmetry_equiv_pos_as_xyz
  1  'x, y, z'
  2  '-x, y, -z'
  3  'x+1/2, y+1/2, z'
  4  '-x+1/2, y+1/2, -z'
loop_
 _atom_site_type_symbol
 _atom_site_label
 _atom_site_symmetry_multiplicity
 _atom_site_fract_x
 _atom_site_fract_y
 _atom_site_fract_z
 _atom_site_occupancy
  Sr  Sr0  4  0.061622  0.199046  0.237439  1
  Sr  Sr1  4  0.073262  0.816266  0.284088  1
  Sr  Sr2  4  0.086655  0.704459  0.096445  1
  Sr  Sr3  4  0.159080  0.493748  0.257490  1
  Sr  Sr4  4  0.165021  0.163593  0.580183  1
  Sr  Sr5  4  0.188144  0.521713  0.605568  1
  Sr  Sr6  4  0.207044  0.408300  0.067108  1
  Sr  Sr7  4  0.224152  0.857430  0.561292  1
  Sr  Sr8  4  0.230278  0.984261  0.135882  1
  Sr  Sr9  2  0.000000  0.150327  0.000000  1
