# generated using pymatgen
data_Sr
_symmetry_space_group_name_H-M   P1
_cell_length_a   5.73841080
_cell_length_b   5.86250100
_cell_length_c   8.15357334
_cell_angle_alpha   107.17756641
_cell_angle_beta   108.96424316
_cell_angle_gamma   93.72110907
_symmetry_Int_Tables_number   1
_chemical_formula_structural   Sr
_chemical_formula_sum   Sr11
_cell_volume   243.87806630
_cell_formula_units_Z   11
loop_
 _symmetry_equiv_pos_site_id
 _symmetry_equiv_pos_as_xyz
  1  'x, y, z'
loop_
 _atom_site_type_symbol
 _atom_site_label
 _atom_site_symmetry_multiplicity
 _atom_site_fract_x
 _atom_site_fract_y
 _atom_site_fract_z
 _atom_site_occupancy
  Sr  Sr0  1  0.024012  0.580210  0.480489  1
  Sr  Sr1  1  0.088253  0.043126  0.979957  1
  Sr  Sr2  1  0.332904  0.230510  0.374665  1
  Sr  Sr3  1  0.350874  0.098928  0.709846  1
  Sr  Sr4  1  0.374563  0.623585  0.863779  1
  Sr  Sr5  1  0.380844  0.685893  0.259059  1
  Sr  Sr6  1  0.630391  0.246018  0.117027  1
  Sr  Sr7  1  0.683541  0.757421  0.649253  1
  Sr  Sr8  1  0.842510  0.171578  0.558156  1
  Sr  Sr9  1  0.842650  0.857459  0.216952  1
  Sr  Sr10  1  0.908098  0.466694  0.923843  1
