# generated using pymatgen
data_Sr
_symmetry_space_group_name_H-M   P-1
_cell_length_a   6.22085419
_cell_length_b   6.41003668
_cell_length_c   6.59727122
_cell_angle_alpha   84.15935550
_cell_angle_beta   84.00832561
_cell_angle_gamma   61.66735210
_symmetry_Int_Tables_number   2
_chemical_formula_structural   Sr
_chemical_formula_sum   Sr9
_cell_volume   229.88283492
_cell_formula_units_Z   9
loop_
 _symmetry_equiv_pos_site_id
 _symmetry_equiv_pos_as_xyz
  1  'x, y, z'
  2  '-x, -y, -z'
loop_
 _atom_site_type_symbol
 _atom_site_label
 _atom_site_symmetry_multiplicity
 _atom_site_fract_x
 _atom_site_fract_y
 _atom_site_fract_z
 _atom_site_occupancy
  Sr  Sr0  2  0.008040  0.862961  0.325800  1
  Sr  Sr1  2  0.090982  0.357838  0.210472  1
  Sr  Sr2  2  0.304622  0.709546  0.936118  1
  Sr  Sr3  2  0.425705  0.283044  0.564595  1
  Sr  Sr4  1  0.500000  0.000000  0.000000  1
