# generated using pymatgen
data_Sr
_symmetry_space_group_name_H-M   P1
_cell_length_a   3.62759724
_cell_length_b   5.87580067
_cell_length_c   7.84344873
_cell_angle_alpha   105.41913176
_cell_angle_beta   103.28555970
_cell_angle_gamma   97.03016450
_symmetry_Int_Tables_number   1
_chemical_formula_structural   Sr
_chemical_formula_sum   Sr5
_cell_volume   153.82352317
_cell_formula_units_Z   5
loop_
 _symmetry_equiv_pos_site_id
 _symmetry_equiv_pos_as_xyz
  1  'x, y, z'
loop_
 _atom_site_type_symbol
 _atom_site_label
 _atom_site_symmetry_multiplicity
 _atom_site_fract_x
 _atom_site_fract_y
 _atom_site_fract_z
 _atom_site_occupancy
  Sr  Sr0  1  0.182357  0.181947  0.870883  1
  Sr  Sr1  1  0.390594  0.878121  0.421236  1
  Sr  Sr2  1  0.699739  0.727127  0.046377  1
  Sr  Sr3  1  0.895584  0.603782  0.665360  1
  Sr  Sr4  1  0.982258  0.283013  0.277508  1
