# generated using pymatgen
data_Sr
_symmetry_space_group_name_H-M   P-1
_cell_length_a   5.63445660
_cell_length_b   5.97988002
_cell_length_c   8.23795718
_cell_angle_alpha   96.04039413
_cell_angle_beta   90.03688693
_cell_angle_gamma   92.59715493
_symmetry_Int_Tables_number   2
_chemical_formula_structural   Sr
_chemical_formula_sum   Sr12
_cell_volume   275.73590739
_cell_formula_units_Z   12
loop_
 _symmetry_equiv_pos_site_id
 _symmetry_equiv_pos_as_xyz
  1  'x, y, z'
  2  '-x, -y, -z'
loop_
 _atom_site_type_symbol
 _atom_site_label
 _atom_site_symmetry_multiplicity
 _atom_site_fract_x
 _atom_site_fract_y
 _atom_site_fract_z
 _atom_site_occupancy
  Sr  Sr0  2  0.118818  0.493319  0.290102  1
  Sr  Sr1  2  0.197228  0.829931  0.029329  1
  Sr  Sr2  2  0.221522  0.996523  0.378287  1
  Sr  Sr3  2  0.295516  0.869218  0.700006  1
  Sr  Sr4  2  0.328889  0.303727  0.979077  1
  Sr  Sr5  2  0.364565  0.395679  0.633766  1
