# generated using pymatgen
data_Sr
_symmetry_space_group_name_H-M   P1
_cell_length_a   6.05075687
_cell_length_b   8.04524782
_cell_length_c   8.38635567
_cell_angle_alpha   113.75531985
_cell_angle_beta   105.80808727
_cell_angle_gamma   101.35317490
_symmetry_Int_Tables_number   1
_chemical_formula_structural   Sr
_chemical_formula_sum   Sr15
_cell_volume   337.03424219
_cell_formula_units_Z   15
loop_
 _symmetry_equiv_pos_site_id
 _symmetry_equiv_pos_as_xyz
  1  'x, y, z'
loop_
 _atom_site_type_symbol
 _atom_site_label
 _atom_site_symmetry_multiplicity
 _atom_site_fract_x
 _atom_site_fract_y
 _atom_site_fract_z
 _atom_site_occupancy
  Sr  Sr0  1  0.090475  0.274459  0.310658  1
  Sr  Sr1  1  0.105436  0.334248  0.664717  1
  Sr  Sr2  1  0.151202  0.835362  0.187703  1
  Sr  Sr3  1  0.153704  0.730407  0.736148  1
  Sr  Sr4  1  0.350086  0.668253  0.430273  1
  Sr  Sr5  1  0.351177  0.140643  0.067656  1
  Sr  Sr6  1  0.383506  0.079121  0.706599  1
  Sr  Sr7  1  0.399073  0.544519  0.058723  1
  Sr  Sr8  1  0.574836  0.189565  0.464943  1
  Sr  Sr9  1  0.657151  0.578325  0.730870  1
  Sr  Sr10  1  0.669215  0.914914  0.056045  1
  Sr  Sr11  1  0.759710  0.487250  0.331058  1
  Sr  Sr12  1  0.828618  0.891219  0.413217  1
  Sr  Sr13  1  0.828736  0.427049  0.979168  1
  Sr  Sr14  1  0.852803  0.040968  0.805566  1
