# generated using pymatgen
data_Sr
_symmetry_space_group_name_H-M   P1
_cell_length_a   5.74347312
_cell_length_b   5.82248681
_cell_length_c   6.85484343
_cell_angle_alpha   68.49204130
_cell_angle_beta   83.37583079
_cell_angle_gamma   63.85690869
_symmetry_Int_Tables_number   1
_chemical_formula_structural   Sr
_chemical_formula_sum   Sr8
_cell_volume   191.16095652
_cell_formula_units_Z   8
loop_
 _symmetry_equiv_pos_site_id
 _symmetry_equiv_pos_as_xyz
  1  'x, y, z'
loop_
 _atom_site_type_symbol
 _atom_site_label
 _atom_site_symmetry_multiplicity
 _atom_site_fract_x
 _atom_site_fract_y
 _atom_site_fract_z
 _atom_site_occupancy
  Sr  Sr0  1  0.014979  0.910039  0.837553  1
  Sr  Sr1  1  0.078380  0.314014  0.948808  1
  Sr  Sr2  1  0.112966  0.018579  0.403527  1
  Sr  Sr3  1  0.477559  0.593765  0.173117  1
  Sr  Sr4  1  0.488049  0.363414  0.635829  1
  Sr  Sr5  1  0.599511  0.792780  0.712767  1
  Sr  Sr6  1  0.603902  0.092540  0.135530  1
  Sr  Sr7  1  0.981611  0.548248  0.390574  1
