# generated using pymatgen
data_Sr
_symmetry_space_group_name_H-M   P1
_cell_length_a   5.77067360
_cell_length_b   5.88648920
_cell_length_c   8.51395287
_cell_angle_alpha   99.56804942
_cell_angle_beta   109.73920755
_cell_angle_gamma   105.47963232
_symmetry_Int_Tables_number   1
_chemical_formula_structural   Sr
_chemical_formula_sum   Sr11
_cell_volume   251.64700703
_cell_formula_units_Z   11
loop_
 _symmetry_equiv_pos_site_id
 _symmetry_equiv_pos_as_xyz
  1  'x, y, z'
loop_
 _atom_site_type_symbol
 _atom_site_label
 _atom_site_symmetry_multiplicity
 _atom_site_fract_x
 _atom_site_fract_y
 _atom_site_fract_z
 _atom_site_occupancy
  Sr  Sr0  1  0.007025  0.602079  0.679226  1
  Sr  Sr1  1  0.019545  0.577772  0.042515  1
  Sr  Sr2  1  0.034461  0.076917  0.940760  1
  Sr  Sr3  1  0.048318  0.964849  0.504089  1
  Sr  Sr4  1  0.338873  0.062357  0.291919  1
  Sr  Sr5  1  0.433346  0.597449  0.529765  1
  Sr  Sr6  1  0.453599  0.329647  0.830688  1
  Sr  Sr7  1  0.533896  0.872466  0.953957  1
  Sr  Sr8  1  0.610994  0.617049  0.226661  1
  Sr  Sr9  1  0.710767  0.119675  0.621523  1
  Sr  Sr10  1  0.874494  0.273902  0.280718  1
