# generated using pymatgen
data_Sr
_symmetry_space_group_name_H-M   P1
_cell_length_a   6.10995443
_cell_length_b   6.18988589
_cell_length_c   6.24213522
_cell_angle_alpha   64.19691226
_cell_angle_beta   65.02590436
_cell_angle_gamma   64.34117811
_symmetry_Int_Tables_number   1
_chemical_formula_structural   Sr
_chemical_formula_sum   Sr7
_cell_volume   183.46231413
_cell_formula_units_Z   7
loop_
 _symmetry_equiv_pos_site_id
 _symmetry_equiv_pos_as_xyz
  1  'x, y, z'
loop_
 _atom_site_type_symbol
 _atom_site_label
 _atom_site_symmetry_multiplicity
 _atom_site_fract_x
 _atom_site_fract_y
 _atom_site_fract_z
 _atom_site_occupancy
  Sr  Sr0  1  0.194271  0.605885  0.822092  1
  Sr  Sr1  1  0.204807  0.461077  0.419835  1
  Sr  Sr2  1  0.399575  0.011535  0.231576  1
  Sr  Sr3  1  0.612458  0.832591  0.667166  1
  Sr  Sr4  1  0.700145  0.540435  0.148308  1
  Sr  Sr5  1  0.768950  0.244872  0.625995  1
  Sr  Sr6  1  0.980380  0.048476  0.061971  1
