# generated using pymatgen
data_Sr
_symmetry_space_group_name_H-M   P1
_cell_length_a   6.03140526
_cell_length_b   6.16071900
_cell_length_c   8.01257852
_cell_angle_alpha   72.77719478
_cell_angle_beta   71.28574308
_cell_angle_gamma   88.51101219
_symmetry_Int_Tables_number   1
_chemical_formula_structural   Sr
_chemical_formula_sum   Sr11
_cell_volume   268.55977146
_cell_formula_units_Z   11
loop_
 _symmetry_equiv_pos_site_id
 _symmetry_equiv_pos_as_xyz
  1  'x, y, z'
loop_
 _atom_site_type_symbol
 _atom_site_label
 _atom_site_symmetry_multiplicity
 _atom_site_fract_x
 _atom_site_fract_y
 _atom_site_fract_z
 _atom_site_occupancy
  Sr  Sr0  1  0.008551  0.112271  0.320405  1
  Sr  Sr1  1  0.063647  0.196893  0.796154  1
  Sr  Sr2  1  0.340773  0.456006  0.397963  1
  Sr  Sr3  1  0.344963  0.849112  0.078991  1
  Sr  Sr4  1  0.345402  0.474019  0.916520  1
  Sr  Sr5  1  0.373860  0.871331  0.517363  1
  Sr  Sr6  1  0.616468  0.117220  0.685203  1
  Sr  Sr7  1  0.639117  0.177165  0.126807  1
  Sr  Sr8  1  0.798500  0.628495  0.626474  1
  Sr  Sr9  1  0.835446  0.588112  0.286880  1
  Sr  Sr10  1  0.908272  0.712885  0.920066  1
