# generated using pymatgen
data_Sr
_symmetry_space_group_name_H-M   P2_1/m
_cell_length_a   4.61560219
_cell_length_b   3.67978661
_cell_length_c   10.38426546
_cell_angle_alpha   90.00000000
_cell_angle_beta   100.34082218
_cell_angle_gamma   90.00000000
_symmetry_Int_Tables_number   11
_chemical_formula_structural   Sr
_chemical_formula_sum   Sr6
_cell_volume   173.50612003
_cell_formula_units_Z   6
loop_
 _symmetry_equiv_pos_site_id
 _symmetry_equiv_pos_as_xyz
  1  'x, y, z'
  2  '-x, -y, -z'
  3  '-x, y+1/2, -z'
  4  'x, -y+1/2, z'
loop_
 _atom_site_type_symbol
 _atom_site_label
 _atom_site_symmetry_multiplicity
 _atom_site_fract_x
 _atom_site_fract_y
 _atom_site_fract_z
 _atom_site_occupancy
  Sr  Sr0  2  0.142276  0.250000  0.741230  1
  Sr  Sr1  2  0.268234  0.750000  0.053536  1
  Sr  Sr2  2  0.408714  0.250000  0.369026  1
