# generated using pymatgen
data_Sr
_symmetry_space_group_name_H-M   P1
_cell_length_a   5.71149037
_cell_length_b   5.87086771
_cell_length_c   7.28608977
_cell_angle_alpha   106.41857837
_cell_angle_beta   108.58246642
_cell_angle_gamma   90.81309821
_symmetry_Int_Tables_number   1
_chemical_formula_structural   Sr
_chemical_formula_sum   Sr11
_cell_volume   220.66732417
_cell_formula_units_Z   11
loop_
 _symmetry_equiv_pos_site_id
 _symmetry_equiv_pos_as_xyz
  1  'x, y, z'
loop_
 _atom_site_type_symbol
 _atom_site_label
 _atom_site_symmetry_multiplicity
 _atom_site_fract_x
 _atom_site_fract_y
 _atom_site_fract_z
 _atom_site_occupancy
  Sr  Sr0  1  0.199049  0.981323  0.295287  1
  Sr  Sr1  1  0.209716  0.140437  0.783634  1
  Sr  Sr2  1  0.261447  0.650342  0.912788  1
  Sr  Sr3  1  0.275965  0.630239  0.535859  1
  Sr  Sr4  1  0.405346  0.304594  0.191379  1
  Sr  Sr5  1  0.576637  0.254371  0.655031  1
  Sr  Sr6  1  0.669419  0.722772  0.285508  1
  Sr  Sr7  1  0.687966  0.000091  0.041128  1
  Sr  Sr8  1  0.819093  0.795186  0.702754  1
  Sr  Sr9  1  0.884181  0.430056  0.036828  1
  Sr  Sr10  1  0.894604  0.287546  0.462640  1
