# generated using pymatgen
data_Sr
_symmetry_space_group_name_H-M   P1
_cell_length_a   6.32010592
_cell_length_b   8.00191488
_cell_length_c   8.33653873
_cell_angle_alpha   89.90663727
_cell_angle_beta   71.16780702
_cell_angle_gamma   72.45703286
_symmetry_Int_Tables_number   1
_chemical_formula_structural   Sr
_chemical_formula_sum   Sr17
_cell_volume   378.33154522
_cell_formula_units_Z   17
loop_
 _symmetry_equiv_pos_site_id
 _symmetry_equiv_pos_as_xyz
  1  'x, y, z'
loop_
 _atom_site_type_symbol
 _atom_site_label
 _atom_site_symmetry_multiplicity
 _atom_site_fract_x
 _atom_site_fract_y
 _atom_site_fract_z
 _atom_site_occupancy
  Sr  Sr0  1  0.145792  0.065194  0.626737  1
  Sr  Sr1  1  0.153144  0.319797  0.850507  1
  Sr  Sr2  1  0.153920  0.706150  0.560873  1
  Sr  Sr3  1  0.166034  0.339722  0.173711  1
  Sr  Sr4  1  0.209156  0.683805  0.193125  1
  Sr  Sr5  1  0.416703  0.931421  0.945172  1
  Sr  Sr6  1  0.447050  0.551542  0.804898  1
  Sr  Sr7  1  0.476109  0.004190  0.258728  1
  Sr  Sr8  1  0.477554  0.324514  0.451485  1
  Sr  Sr9  1  0.649957  0.822229  0.541027  1
  Sr  Sr10  1  0.655592  0.138992  0.732516  1
  Sr  Sr11  1  0.674788  0.284374  0.066363  1
  Sr  Sr12  1  0.684415  0.607995  0.237554  1
  Sr  Sr13  1  0.829455  0.642448  0.879954  1
  Sr  Sr14  1  0.920824  0.422392  0.522653  1
  Sr  Sr15  1  0.948218  0.064799  0.327271  1
  Sr  Sr16  1  0.966003  0.906915  0.975153  1
