# generated using pymatgen
data_Sr
_symmetry_space_group_name_H-M   C2
_cell_length_a   8.28802827
_cell_length_b   10.87629705
_cell_length_c   7.44683681
_cell_angle_alpha   90.00000000
_cell_angle_beta   122.41130252
_cell_angle_gamma   90.00000000
_symmetry_Int_Tables_number   5
_chemical_formula_structural   Sr
_chemical_formula_sum   Sr26
_cell_volume   566.71002270
_cell_formula_units_Z   26
loop_
 _symmetry_equiv_pos_site_id
 _symmetry_equiv_pos_as_xyz
  1  'x, y, z'
  2  '-x, y, -z'
  3  'x+1/2, y+1/2, z'
  4  '-x+1/2, y+1/2, -z'
loop_
 _atom_site_type_symbol
 _atom_site_label
 _atom_site_symmetry_multiplicity
 _atom_site_fract_x
 _atom_site_fract_y
 _atom_site_fract_z
 _atom_site_occupancy
  Sr  Sr0  4  0.031667  0.765264  0.814415  1
  Sr  Sr1  4  0.118443  0.526097  0.353372  1
  Sr  Sr2  4  0.174256  0.114912  0.856957  1
  Sr  Sr3  4  0.215923  0.951963  0.168413  1
  Sr  Sr4  4  0.219177  0.197879  0.327558  1
  Sr  Sr5  2  0.000000  0.283885  0.500000  1
  Sr  Sr6  2  0.000000  0.371089  0.000000  1
  Sr  Sr7  2  0.000000  0.941098  0.500000  1
