# generated using pymatgen
data_Sr
_symmetry_space_group_name_H-M   P1
_cell_length_a   7.11761008
_cell_length_b   7.79991358
_cell_length_c   7.93568642
_cell_angle_alpha   117.25598874
_cell_angle_beta   107.49440148
_cell_angle_gamma   92.67353685
_symmetry_Int_Tables_number   1
_chemical_formula_structural   Sr
_chemical_formula_sum   Sr17
_cell_volume   364.59903932
_cell_formula_units_Z   17
loop_
 _symmetry_equiv_pos_site_id
 _symmetry_equiv_pos_as_xyz
  1  'x, y, z'
loop_
 _atom_site_type_symbol
 _atom_site_label
 _atom_site_symmetry_multiplicity
 _atom_site_fract_x
 _atom_site_fract_y
 _atom_site_fract_z
 _atom_site_occupancy
  Sr  Sr0  1  0.107843  0.294956  0.650845  1
  Sr  Sr1  1  0.201624  0.557472  0.514119  1
  Sr  Sr2  1  0.246642  0.956811  0.430241  1
  Sr  Sr3  1  0.249100  0.325788  0.151321  1
  Sr  Sr4  1  0.320703  0.979107  0.124610  1
  Sr  Sr5  1  0.428942  0.604913  0.056417  1
  Sr  Sr6  1  0.436746  0.135524  0.868189  1
  Sr  Sr7  1  0.560556  0.380894  0.647940  1
  Sr  Sr8  1  0.568387  0.789110  0.854700  1
  Sr  Sr9  1  0.575548  0.756802  0.490158  1
  Sr  Sr10  1  0.708809  0.061076  0.398473  1
  Sr  Sr11  1  0.717508  0.407063  0.318323  1
  Sr  Sr12  1  0.849506  0.207482  0.870763  1
  Sr  Sr13  1  0.910114  0.054624  0.146496  1
  Sr  Sr14  1  0.913684  0.643960  0.171028  1
  Sr  Sr15  1  0.985215  0.879222  0.639313  1
  Sr  Sr16  1  0.985371  0.653359  0.825645  1
