# generated using pymatgen
data_Sr
_symmetry_space_group_name_H-M   Pm
_cell_length_a   8.38002091
_cell_length_b   3.11839144
_cell_length_c   10.31206861
_cell_angle_alpha   90.00000000
_cell_angle_beta   93.20652262
_cell_angle_gamma   90.00000000
_symmetry_Int_Tables_number   6
_chemical_formula_structural   Sr
_chemical_formula_sum   Sr12
_cell_volume   269.05499780
_cell_formula_units_Z   12
loop_
 _symmetry_equiv_pos_site_id
 _symmetry_equiv_pos_as_xyz
  1  'x, y, z'
  2  'x, -y, z'
loop_
 _atom_site_type_symbol
 _atom_site_label
 _atom_site_symmetry_multiplicity
 _atom_site_fract_x
 _atom_site_fract_y
 _atom_site_fract_z
 _atom_site_occupancy
  Sr  Sr0  1  0.024264  0.000000  0.882476  1
  Sr  Sr1  1  0.167300  0.500000  0.396542  1
  Sr  Sr2  1  0.222127  0.500000  0.667404  1
  Sr  Sr3  1  0.307702  0.500000  0.109322  1
  Sr  Sr4  1  0.378599  0.000000  0.884742  1
  Sr  Sr5  1  0.461014  0.000000  0.350240  1
  Sr  Sr6  1  0.554275  0.000000  0.620486  1
  Sr  Sr7  1  0.649422  0.000000  0.090301  1
  Sr  Sr8  1  0.719875  0.500000  0.871255  1
  Sr  Sr9  1  0.767829  0.500000  0.362479  1
  Sr  Sr10  1  0.903196  0.000000  0.579708  1
  Sr  Sr11  1  0.980636  0.500000  0.153341  1
