# generated using pymatgen
data_Sr
_symmetry_space_group_name_H-M   P1
_cell_length_a   5.74029562
_cell_length_b   5.83301314
_cell_length_c   8.71929758
_cell_angle_alpha   93.83407302
_cell_angle_beta   101.19119801
_cell_angle_gamma   115.29959801
_symmetry_Int_Tables_number   1
_chemical_formula_structural   Sr
_chemical_formula_sum   Sr13
_cell_volume   255.20832291
_cell_formula_units_Z   13
loop_
 _symmetry_equiv_pos_site_id
 _symmetry_equiv_pos_as_xyz
  1  'x, y, z'
loop_
 _atom_site_type_symbol
 _atom_site_label
 _atom_site_symmetry_multiplicity
 _atom_site_fract_x
 _atom_site_fract_y
 _atom_site_fract_z
 _atom_site_occupancy
  Sr  Sr0  1  0.027940  0.856857  0.016621  1
  Sr  Sr1  1  0.103694  0.957431  0.708267  1
  Sr  Sr2  1  0.193534  0.374037  0.966882  1
  Sr  Sr3  1  0.214683  0.595139  0.246373  1
  Sr  Sr4  1  0.251947  0.177211  0.345837  1
  Sr  Sr5  1  0.495080  0.961762  0.538372  1
  Sr  Sr6  1  0.516169  0.817011  0.863844  1
  Sr  Sr7  1  0.553907  0.547380  0.599774  1
  Sr  Sr8  1  0.615815  0.305104  0.170658  1
  Sr  Sr9  1  0.692363  0.899123  0.219982  1
  Sr  Sr10  1  0.713043  0.345832  0.857317  1
  Sr  Sr11  1  0.900398  0.676950  0.420286  1
  Sr  Sr12  1  0.991020  0.340250  0.592166  1
