# generated using pymatgen
data_Sr
_symmetry_space_group_name_H-M   P1
_cell_length_a   6.20208713
_cell_length_b   6.47866795
_cell_length_c   7.18962334
_cell_angle_alpha   100.89250778
_cell_angle_beta   96.94559622
_cell_angle_gamma   118.43832006
_symmetry_Int_Tables_number   1
_chemical_formula_structural   Sr
_chemical_formula_sum   Sr11
_cell_volume   241.89545753
_cell_formula_units_Z   11
loop_
 _symmetry_equiv_pos_site_id
 _symmetry_equiv_pos_as_xyz
  1  'x, y, z'
loop_
 _atom_site_type_symbol
 _atom_site_label
 _atom_site_symmetry_multiplicity
 _atom_site_fract_x
 _atom_site_fract_y
 _atom_site_fract_z
 _atom_site_occupancy
  Sr  Sr0  1  0.109218  0.838535  0.513513  1
  Sr  Sr1  1  0.211505  0.502934  0.284801  1
  Sr  Sr2  1  0.262465  0.295047  0.814334  1
  Sr  Sr3  1  0.265059  0.744920  0.960902  1
  Sr  Sr4  1  0.423641  0.152531  0.321267  1
  Sr  Sr5  1  0.552918  0.825185  0.662288  1
  Sr  Sr6  1  0.693718  0.689386  0.203488  1
  Sr  Sr7  1  0.710843  0.276994  0.998266  1
  Sr  Sr8  1  0.767692  0.521147  0.682468  1
  Sr  Sr9  1  0.899709  0.177188  0.477857  1
  Sr  Sr10  1  0.959405  0.990373  0.003793  1
