# generated using pymatgen
data_Sr
_symmetry_space_group_name_H-M   P1
_cell_length_a   5.86624999
_cell_length_b   8.21230270
_cell_length_c   8.22913501
_cell_angle_alpha   116.14828292
_cell_angle_beta   100.77399609
_cell_angle_gamma   100.68090228
_symmetry_Int_Tables_number   1
_chemical_formula_structural   Sr
_chemical_formula_sum   Sr15
_cell_volume   333.09500330
_cell_formula_units_Z   15
loop_
 _symmetry_equiv_pos_site_id
 _symmetry_equiv_pos_as_xyz
  1  'x, y, z'
loop_
 _atom_site_type_symbol
 _atom_site_label
 _atom_site_symmetry_multiplicity
 _atom_site_fract_x
 _atom_site_fract_y
 _atom_site_fract_z
 _atom_site_occupancy
  Sr  Sr0  1  0.022910  0.601129  0.775636  1
  Sr  Sr1  1  0.023706  0.708959  0.159882  1
  Sr  Sr2  1  0.031337  0.220923  0.659083  1
  Sr  Sr3  1  0.039691  0.096827  0.283307  1
  Sr  Sr4  1  0.310178  0.928470  0.596552  1
  Sr  Sr5  1  0.317210  0.033699  0.991254  1
  Sr  Sr6  1  0.319945  0.545246  0.496085  1
  Sr  Sr7  1  0.332252  0.433716  0.102294  1
  Sr  Sr8  1  0.557054  0.347659  0.800636  1
  Sr  Sr9  1  0.559255  0.729112  0.913383  1
  Sr  Sr10  1  0.567077  0.873412  0.300104  1
  Sr  Sr11  1  0.569612  0.259557  0.427892  1
  Sr  Sr12  1  0.807341  0.729070  0.519568  1
  Sr  Sr13  1  0.821570  0.048830  0.859307  1
  Sr  Sr14  1  0.824988  0.373645  0.207208  1
