# generated using pymatgen
data_Sr
_symmetry_space_group_name_H-M   P1
_cell_length_a   4.49820985
_cell_length_b   6.09202682
_cell_length_c   6.21486675
_cell_angle_alpha   78.68713493
_cell_angle_beta   83.43449487
_cell_angle_gamma   74.21291164
_symmetry_Int_Tables_number   1
_chemical_formula_structural   Sr
_chemical_formula_sum   Sr6
_cell_volume   160.36326069
_cell_formula_units_Z   6
loop_
 _symmetry_equiv_pos_site_id
 _symmetry_equiv_pos_as_xyz
  1  'x, y, z'
loop_
 _atom_site_type_symbol
 _atom_site_label
 _atom_site_symmetry_multiplicity
 _atom_site_fract_x
 _atom_site_fract_y
 _atom_site_fract_z
 _atom_site_occupancy
  Sr  Sr0  1  0.003058  0.568972  0.865440  1
  Sr  Sr1  1  0.229670  0.285604  0.317343  1
  Sr  Sr2  1  0.388179  0.904302  0.916237  1
  Sr  Sr3  1  0.462324  0.620433  0.460399  1
  Sr  Sr4  1  0.796875  0.204965  0.738077  1
  Sr  Sr5  1  0.881733  0.915419  0.300692  1
