# generated using pymatgen
data_Sr
_symmetry_space_group_name_H-M   P1
_cell_length_a   5.98062296
_cell_length_b   6.06513773
_cell_length_c   8.72512181
_cell_angle_alpha   101.72111611
_cell_angle_beta   95.37847478
_cell_angle_gamma   90.68612700
_symmetry_Int_Tables_number   1
_chemical_formula_structural   Sr
_chemical_formula_sum   Sr13
_cell_volume   308.36897844
_cell_formula_units_Z   13
loop_
 _symmetry_equiv_pos_site_id
 _symmetry_equiv_pos_as_xyz
  1  'x, y, z'
loop_
 _atom_site_type_symbol
 _atom_site_label
 _atom_site_symmetry_multiplicity
 _atom_site_fract_x
 _atom_site_fract_y
 _atom_site_fract_z
 _atom_site_occupancy
  Sr  Sr0  1  0.035353  0.419610  0.738241  1
  Sr  Sr1  1  0.106394  0.179432  0.356664  1
  Sr  Sr2  1  0.210442  0.353351  0.061425  1
  Sr  Sr3  1  0.224427  0.870013  0.941955  1
  Sr  Sr4  1  0.292018  0.993725  0.663554  1
  Sr  Sr5  1  0.416428  0.834736  0.248012  1
  Sr  Sr6  1  0.451278  0.533836  0.458374  1
  Sr  Sr7  1  0.567026  0.533619  0.825139  1
  Sr  Sr8  1  0.665567  0.244600  0.154544  1
  Sr  Sr9  1  0.678726  0.106102  0.526330  1
  Sr  Sr10  1  0.779255  0.007684  0.853966  1
  Sr  Sr11  1  0.871945  0.709154  0.157090  1
  Sr  Sr12  1  0.937883  0.694145  0.500350  1
