# generated using pymatgen
data_Sr
_symmetry_space_group_name_H-M   P1
_cell_length_a   5.80435050
_cell_length_b   8.85747155
_cell_length_c   8.87878470
_cell_angle_alpha   63.55030587
_cell_angle_beta   78.02007344
_cell_angle_gamma   86.01797100
_symmetry_Int_Tables_number   1
_chemical_formula_structural   Sr
_chemical_formula_sum   Sr18
_cell_volume   399.65456872
_cell_formula_units_Z   18
loop_
 _symmetry_equiv_pos_site_id
 _symmetry_equiv_pos_as_xyz
  1  'x, y, z'
loop_
 _atom_site_type_symbol
 _atom_site_label
 _atom_site_symmetry_multiplicity
 _atom_site_fract_x
 _atom_site_fract_y
 _atom_site_fract_z
 _atom_site_occupancy
  Sr  Sr0  1  0.048882  0.975588  0.912741  1
  Sr  Sr1  1  0.097012  0.865451  0.264545  1
  Sr  Sr2  1  0.158124  0.211081  0.220851  1
  Sr  Sr3  1  0.272218  0.242816  0.551772  1
  Sr  Sr4  1  0.342920  0.529342  0.622470  1
  Sr  Sr5  1  0.409982  0.216851  0.911508  1
  Sr  Sr6  1  0.465818  0.536952  0.968124  1
  Sr  Sr7  1  0.472576  0.862118  0.562034  1
  Sr  Sr8  1  0.493424  0.625211  0.249978  1
  Sr  Sr9  1  0.544615  0.897930  0.870827  1
  Sr  Sr10  1  0.631303  0.958831  0.197203  1
  Sr  Sr11  1  0.651694  0.238226  0.291017  1
  Sr  Sr12  1  0.759488  0.239722  0.620052  1
  Sr  Sr13  1  0.870248  0.594767  0.589556  1
  Sr  Sr14  1  0.899430  0.321234  0.925168  1
  Sr  Sr15  1  0.957940  0.523086  0.293900  1
  Sr  Sr16  1  0.990646  0.945117  0.559098  1
  Sr  Sr17  1  0.997199  0.650838  0.921035  1
