# generated using pymatgen
data_Sr
_symmetry_space_group_name_H-M   C2/m
_cell_length_a   15.09830465
_cell_length_b   3.58467832
_cell_length_c   7.75698557
_cell_angle_alpha   90.00000000
_cell_angle_beta   117.19138691
_cell_angle_gamma   90.00000000
_symmetry_Int_Tables_number   12
_chemical_formula_structural   Sr
_chemical_formula_sum   Sr14
_cell_volume   373.43070427
_cell_formula_units_Z   14
loop_
 _symmetry_equiv_pos_site_id
 _symmetry_equiv_pos_as_xyz
  1  'x, y, z'
  2  '-x, -y, -z'
  3  '-x, y, -z'
  4  'x, -y, z'
  5  'x+1/2, y+1/2, z'
  6  '-x+1/2, -y+1/2, -z'
  7  '-x+1/2, y+1/2, -z'
  8  'x+1/2, -y+1/2, z'
loop_
 _atom_site_type_symbol
 _atom_site_label
 _atom_site_symmetry_multiplicity
 _atom_site_fract_x
 _atom_site_fract_y
 _atom_site_fract_z
 _atom_site_occupancy
  Sr  Sr0  4  0.083641  0.000000  0.186111  1
  Sr  Sr1  4  0.146281  0.500000  0.926612  1
  Sr  Sr2  4  0.205109  0.500000  0.620122  1
  Sr  Sr3  2  0.000000  0.000000  0.500000  1
