# generated using pymatgen
data_Sr
_symmetry_space_group_name_H-M   P1
_cell_length_a   6.05508028
_cell_length_b   6.12102422
_cell_length_c   6.14200395
_cell_angle_alpha   85.29799018
_cell_angle_beta   84.15562129
_cell_angle_gamma   65.47148221
_symmetry_Int_Tables_number   1
_chemical_formula_structural   Sr
_chemical_formula_sum   Sr9
_cell_volume   205.82441188
_cell_formula_units_Z   9
loop_
 _symmetry_equiv_pos_site_id
 _symmetry_equiv_pos_as_xyz
  1  'x, y, z'
loop_
 _atom_site_type_symbol
 _atom_site_label
 _atom_site_symmetry_multiplicity
 _atom_site_fract_x
 _atom_site_fract_y
 _atom_site_fract_z
 _atom_site_occupancy
  Sr  Sr0  1  0.046731  0.214464  0.972504  1
  Sr  Sr1  1  0.108915  0.630721  0.128373  1
  Sr  Sr2  1  0.216429  0.278858  0.509772  1
  Sr  Sr3  1  0.231361  0.808820  0.615380  1
  Sr  Sr4  1  0.427064  0.842382  0.141396  1
  Sr  Sr5  1  0.566202  0.320869  0.855436  1
  Sr  Sr6  1  0.719531  0.071927  0.317855  1
  Sr  Sr7  1  0.719608  0.503419  0.411207  1
  Sr  Sr8  1  0.746209  0.807187  0.776448  1
