# generated using pymatgen
data_Sr
_symmetry_space_group_name_H-M   Cm
_cell_length_a   17.79051362
_cell_length_b   3.49507191
_cell_length_c   4.69599241
_cell_angle_alpha   90.00000000
_cell_angle_beta   102.86992073
_cell_angle_gamma   90.00000000
_symmetry_Int_Tables_number   8
_chemical_formula_structural   Sr
_chemical_formula_sum   Sr10
_cell_volume   284.65733260
_cell_formula_units_Z   10
loop_
 _symmetry_equiv_pos_site_id
 _symmetry_equiv_pos_as_xyz
  1  'x, y, z'
  2  'x, -y, z'
  3  'x+1/2, y+1/2, z'
  4  'x+1/2, -y+1/2, z'
loop_
 _atom_site_type_symbol
 _atom_site_label
 _atom_site_symmetry_multiplicity
 _atom_site_fract_x
 _atom_site_fract_y
 _atom_site_fract_z
 _atom_site_occupancy
  Sr  Sr0  2  0.077715  0.000000  0.338857  1
  Sr  Sr1  2  0.196960  0.500000  0.980056  1
  Sr  Sr2  2  0.307008  0.500000  0.601392  1
  Sr  Sr3  2  0.386365  0.000000  0.177439  1
  Sr  Sr4  2  0.497513  0.000000  0.769604  1
