# generated using pymatgen
data_Sr
_symmetry_space_group_name_H-M   P1
_cell_length_a   5.99362696
_cell_length_b   6.19860949
_cell_length_c   8.20382498
_cell_angle_alpha   70.76822535
_cell_angle_beta   74.63447136
_cell_angle_gamma   76.09245500
_symmetry_Int_Tables_number   1
_chemical_formula_structural   Sr
_chemical_formula_sum   Sr11
_cell_volume   273.54359794
_cell_formula_units_Z   11
loop_
 _symmetry_equiv_pos_site_id
 _symmetry_equiv_pos_as_xyz
  1  'x, y, z'
loop_
 _atom_site_type_symbol
 _atom_site_label
 _atom_site_symmetry_multiplicity
 _atom_site_fract_x
 _atom_site_fract_y
 _atom_site_fract_z
 _atom_site_occupancy
  Sr  Sr0  1  0.000866  0.881451  0.747754  1
  Sr  Sr1  1  0.033093  0.392264  0.912590  1
  Sr  Sr2  1  0.122764  0.376996  0.548659  1
  Sr  Sr3  1  0.283857  0.367108  0.197820  1
  Sr  Sr4  1  0.305212  0.896826  0.006057  1
  Sr  Sr5  1  0.440902  0.833655  0.464632  1
  Sr  Sr6  1  0.583734  0.226662  0.629402  1
  Sr  Sr7  1  0.585036  0.587374  0.791087  1
  Sr  Sr8  1  0.712257  0.026258  0.066322  1
  Sr  Sr9  1  0.733844  0.500272  0.251810  1
  Sr  Sr10  1  0.973522  0.907094  0.356680  1
