# generated using pymatgen
data_Sr
_symmetry_space_group_name_H-M   P1
_cell_length_a   5.82758666
_cell_length_b   5.98323058
_cell_length_c   8.02581962
_cell_angle_alpha   70.50660584
_cell_angle_beta   68.98334909
_cell_angle_gamma   89.04536261
_symmetry_Int_Tables_number   1
_chemical_formula_structural   Sr
_chemical_formula_sum   Sr11
_cell_volume   244.55967310
_cell_formula_units_Z   11
loop_
 _symmetry_equiv_pos_site_id
 _symmetry_equiv_pos_as_xyz
  1  'x, y, z'
loop_
 _atom_site_type_symbol
 _atom_site_label
 _atom_site_symmetry_multiplicity
 _atom_site_fract_x
 _atom_site_fract_y
 _atom_site_fract_z
 _atom_site_occupancy
  Sr  Sr0  1  0.044146  0.605986  0.475827  1
  Sr  Sr1  1  0.128800  0.702494  0.041656  1
  Sr  Sr2  1  0.157145  0.094559  0.259895  1
  Sr  Sr3  1  0.164002  0.099709  0.663289  1
  Sr  Sr4  1  0.459134  0.707906  0.578489  1
  Sr  Sr5  1  0.488165  0.250788  0.866496  1
  Sr  Sr6  1  0.502223  0.520188  0.194444  1
  Sr  Sr7  1  0.698985  0.839906  0.785834  1
  Sr  Sr8  1  0.716579  0.964110  0.185097  1
  Sr  Sr9  1  0.721935  0.284835  0.444652  1
  Sr  Sr10  1  0.937993  0.422096  0.886987  1
