# generated using pymatgen
data_Sr
_symmetry_space_group_name_H-M   P-1
_cell_length_a   5.12313686
_cell_length_b   6.03638207
_cell_length_c   6.74485333
_cell_angle_alpha   76.69253831
_cell_angle_beta   75.71459328
_cell_angle_gamma   73.00365732
_symmetry_Int_Tables_number   2
_chemical_formula_structural   Sr
_chemical_formula_sum   Sr10
_cell_volume   190.47582257
_cell_formula_units_Z   10
loop_
 _symmetry_equiv_pos_site_id
 _symmetry_equiv_pos_as_xyz
  1  'x, y, z'
  2  '-x, -y, -z'
loop_
 _atom_site_type_symbol
 _atom_site_label
 _atom_site_symmetry_multiplicity
 _atom_site_fract_x
 _atom_site_fract_y
 _atom_site_fract_z
 _atom_site_occupancy
  Sr  Sr0  2  0.025868  0.220304  0.985944  1
  Sr  Sr1  2  0.185482  0.568070  0.593083  1
  Sr  Sr2  2  0.227691  0.023057  0.610982  1
  Sr  Sr3  2  0.382445  0.356568  0.200523  1
  Sr  Sr4  2  0.425550  0.832884  0.205699  1
