# generated using pymatgen
data_Sr
_symmetry_space_group_name_H-M   P1
_cell_length_a   5.31222513
_cell_length_b   5.53099252
_cell_length_c   5.63892523
_cell_angle_alpha   102.20197678
_cell_angle_beta   107.41865361
_cell_angle_gamma   115.69767036
_symmetry_Int_Tables_number   1
_chemical_formula_structural   Sr
_chemical_formula_sum   Sr5
_cell_volume   130.75432447
_cell_formula_units_Z   5
loop_
 _symmetry_equiv_pos_site_id
 _symmetry_equiv_pos_as_xyz
  1  'x, y, z'
loop_
 _atom_site_type_symbol
 _atom_site_label
 _atom_site_symmetry_multiplicity
 _atom_site_fract_x
 _atom_site_fract_y
 _atom_site_fract_z
 _atom_site_occupancy
  Sr  Sr0  1  0.263066  0.418284  0.511211  1
  Sr  Sr1  1  0.507199  0.834554  0.153821  1
  Sr  Sr2  1  0.539391  0.137310  0.695660  1
  Sr  Sr3  1  0.765940  0.500281  0.297266  1
  Sr  Sr4  1  0.996199  0.921177  0.994458  1
