# generated using pymatgen
data_Sr
_symmetry_space_group_name_H-M   P1
_cell_length_a   5.98039147
_cell_length_b   6.29433811
_cell_length_c   9.06726027
_cell_angle_alpha   77.32992544
_cell_angle_beta   80.65576780
_cell_angle_gamma   89.46424853
_symmetry_Int_Tables_number   1
_chemical_formula_structural   Sr
_chemical_formula_sum   Sr14
_cell_volume   328.46298854
_cell_formula_units_Z   14
loop_
 _symmetry_equiv_pos_site_id
 _symmetry_equiv_pos_as_xyz
  1  'x, y, z'
loop_
 _atom_site_type_symbol
 _atom_site_label
 _atom_site_symmetry_multiplicity
 _atom_site_fract_x
 _atom_site_fract_y
 _atom_site_fract_z
 _atom_site_occupancy
  Sr  Sr0  1  0.022911  0.118492  0.815306  1
  Sr  Sr1  1  0.122117  0.536846  0.847938  1
  Sr  Sr2  1  0.207213  0.132018  0.177536  1
  Sr  Sr3  1  0.256215  0.126370  0.503263  1
  Sr  Sr4  1  0.338455  0.855862  0.968838  1
  Sr  Sr5  1  0.359585  0.593123  0.290916  1
  Sr  Sr6  1  0.408524  0.702892  0.569898  1
  Sr  Sr7  1  0.565387  0.253192  0.706280  1
  Sr  Sr8  1  0.576423  0.392700  0.979616  1
  Sr  Sr9  1  0.738471  0.964162  0.126235  1
  Sr  Sr10  1  0.744547  0.789879  0.762593  1
  Sr  Sr11  1  0.780809  0.048419  0.414892  1
  Sr  Sr12  1  0.856826  0.516713  0.187566  1
  Sr  Sr13  1  0.921049  0.548262  0.509584  1
