# generated using pymatgen
data_Sr
_symmetry_space_group_name_H-M   P1
_cell_length_a   5.93318393
_cell_length_b   6.09851608
_cell_length_c   6.26591324
_cell_angle_alpha   92.35833925
_cell_angle_beta   96.64424621
_cell_angle_gamma   99.92710534
_symmetry_Int_Tables_number   1
_chemical_formula_structural   Sr
_chemical_formula_sum   Sr10
_cell_volume   221.39603098
_cell_formula_units_Z   10
loop_
 _symmetry_equiv_pos_site_id
 _symmetry_equiv_pos_as_xyz
  1  'x, y, z'
loop_
 _atom_site_type_symbol
 _atom_site_label
 _atom_site_symmetry_multiplicity
 _atom_site_fract_x
 _atom_site_fract_y
 _atom_site_fract_z
 _atom_site_occupancy
  Sr  Sr0  1  0.111890  0.393405  0.715583  1
  Sr  Sr1  1  0.140068  0.935121  0.838826  1
  Sr  Sr2  1  0.284682  0.860905  0.258800  1
  Sr  Sr3  1  0.308341  0.398922  0.135947  1
  Sr  Sr4  1  0.475630  0.626719  0.559882  1
  Sr  Sr5  1  0.531841  0.181225  0.532975  1
  Sr  Sr6  1  0.641926  0.989330  0.919231  1
  Sr  Sr7  1  0.739328  0.517614  0.002431  1
  Sr  Sr8  1  0.887970  0.747141  0.451500  1
  Sr  Sr9  1  0.914724  0.182479  0.313091  1
