# generated using pymatgen
data_Sr
_symmetry_space_group_name_H-M   P1
_cell_length_a   5.37841744
_cell_length_b   5.65855806
_cell_length_c   6.88290956
_cell_angle_alpha   69.27714531
_cell_angle_beta   84.48901401
_cell_angle_gamma   71.80846112
_symmetry_Int_Tables_number   1
_chemical_formula_structural   Sr
_chemical_formula_sum   Sr8
_cell_volume   186.10552419
_cell_formula_units_Z   8
loop_
 _symmetry_equiv_pos_site_id
 _symmetry_equiv_pos_as_xyz
  1  'x, y, z'
loop_
 _atom_site_type_symbol
 _atom_site_label
 _atom_site_symmetry_multiplicity
 _atom_site_fract_x
 _atom_site_fract_y
 _atom_site_fract_z
 _atom_site_occupancy
  Sr  Sr0  1  0.002642  0.197133  0.485829  1
  Sr  Sr1  1  0.309797  0.606294  0.745537  1
  Sr  Sr2  1  0.378306  0.146715  0.180783  1
  Sr  Sr3  1  0.413195  0.577390  0.297044  1
  Sr  Sr4  1  0.467670  0.072804  0.731332  1
  Sr  Sr5  1  0.807169  0.507102  0.996203  1
  Sr  Sr6  1  0.816444  0.740936  0.480420  1
  Sr  Sr7  1  0.983904  0.933749  0.026848  1
