# generated using pymatgen
data_Sr
_symmetry_space_group_name_H-M   P1
_cell_length_a   5.82440447
_cell_length_b   6.25869929
_cell_length_c   8.51504260
_cell_angle_alpha   68.51228466
_cell_angle_beta   87.40108353
_cell_angle_gamma   65.36365636
_symmetry_Int_Tables_number   1
_chemical_formula_structural   Sr
_chemical_formula_sum   Sr11
_cell_volume   260.41188501
_cell_formula_units_Z   11
loop_
 _symmetry_equiv_pos_site_id
 _symmetry_equiv_pos_as_xyz
  1  'x, y, z'
loop_
 _atom_site_type_symbol
 _atom_site_label
 _atom_site_symmetry_multiplicity
 _atom_site_fract_x
 _atom_site_fract_y
 _atom_site_fract_z
 _atom_site_occupancy
  Sr  Sr0  1  0.027684  0.354043  0.061006  1
  Sr  Sr1  1  0.159039  0.800866  0.618902  1
  Sr  Sr2  1  0.380624  0.317418  0.590338  1
  Sr  Sr3  1  0.401374  0.563020  0.015987  1
  Sr  Sr4  1  0.454556  0.776834  0.332975  1
  Sr  Sr5  1  0.519632  0.031354  0.953187  1
  Sr  Sr6  1  0.637754  0.127673  0.334921  1
  Sr  Sr7  1  0.717995  0.714003  0.708453  1
  Sr  Sr8  1  0.914033  0.178673  0.787094  1
  Sr  Sr9  1  0.965803  0.384240  0.396876  1
  Sr  Sr10  1  0.993794  0.825594  0.178481  1
