# generated using pymatgen
data_Sr
_symmetry_space_group_name_H-M   Cm
_cell_length_a   16.58758419
_cell_length_b   3.16374987
_cell_length_c   10.97105400
_cell_angle_alpha   90.00000000
_cell_angle_beta   107.91701160
_cell_angle_gamma   90.00000000
_symmetry_Int_Tables_number   8
_chemical_formula_structural   Sr
_chemical_formula_sum   Sr24
_cell_volume   547.82751718
_cell_formula_units_Z   24
loop_
 _symmetry_equiv_pos_site_id
 _symmetry_equiv_pos_as_xyz
  1  'x, y, z'
  2  'x, -y, z'
  3  'x+1/2, y+1/2, z'
  4  'x+1/2, -y+1/2, z'
loop_
 _atom_site_type_symbol
 _atom_site_label
 _atom_site_symmetry_multiplicity
 _atom_site_fract_x
 _atom_site_fract_y
 _atom_site_fract_z
 _atom_site_occupancy
  Sr  Sr0  2  0.041725  0.000000  0.087793  1
  Sr  Sr1  2  0.051125  0.000000  0.540078  1
  Sr  Sr2  2  0.132621  0.500000  0.353425  1
  Sr  Sr3  2  0.139813  0.500000  0.943471  1
  Sr  Sr4  2  0.212532  0.000000  0.733191  1
  Sr  Sr5  2  0.243351  0.000000  0.223842  1
  Sr  Sr6  2  0.273200  0.500000  0.568213  1
  Sr  Sr7  2  0.312706  0.000000  0.015455  1
  Sr  Sr8  2  0.377875  0.000000  0.463351  1
  Sr  Sr9  2  0.396915  0.500000  0.867575  1
  Sr  Sr10  2  0.437550  0.000000  0.246411  1
  Sr  Sr11  2  0.495141  0.000000  0.743252  1
