# generated using pymatgen
data_Sr
_symmetry_space_group_name_H-M   P1
_cell_length_a   5.51567774
_cell_length_b   6.49926978
_cell_length_c   8.22132252
_cell_angle_alpha   77.36641526
_cell_angle_beta   84.00471891
_cell_angle_gamma   67.79037562
_symmetry_Int_Tables_number   1
_chemical_formula_structural   Sr
_chemical_formula_sum   Sr14
_cell_volume   266.16764800
_cell_formula_units_Z   14
loop_
 _symmetry_equiv_pos_site_id
 _symmetry_equiv_pos_as_xyz
  1  'x, y, z'
loop_
 _atom_site_type_symbol
 _atom_site_label
 _atom_site_symmetry_multiplicity
 _atom_site_fract_x
 _atom_site_fract_y
 _atom_site_fract_z
 _atom_site_occupancy
  Sr  Sr0  1  0.088464  0.270621  0.605915  1
  Sr  Sr1  1  0.118746  0.689902  0.409643  1
  Sr  Sr2  1  0.126190  0.101792  0.326539  1
  Sr  Sr3  1  0.299082  0.824302  0.741771  1
  Sr  Sr4  1  0.306793  0.035076  0.023493  1
  Sr  Sr5  1  0.389355  0.576621  0.097496  1
  Sr  Sr6  1  0.471568  0.359058  0.829076  1
  Sr  Sr7  1  0.586869  0.745219  0.435265  1
  Sr  Sr8  1  0.588623  0.310733  0.512588  1
  Sr  Sr9  1  0.643473  0.137602  0.233739  1
  Sr  Sr10  1  0.781377  0.871904  0.672159  1
  Sr  Sr11  1  0.857726  0.953473  0.971278  1
  Sr  Sr12  1  0.886737  0.548275  0.183845  1
  Sr  Sr13  1  0.917536  0.439347  0.881222  1
