# generated using pymatgen
data_Sr
_symmetry_space_group_name_H-M   P1
_cell_length_a   6.03833919
_cell_length_b   7.61870099
_cell_length_c   8.05580773
_cell_angle_alpha   63.81788229
_cell_angle_beta   77.07233438
_cell_angle_gamma   86.75466359
_symmetry_Int_Tables_number   1
_chemical_formula_structural   Sr
_chemical_formula_sum   Sr15
_cell_volume   323.77118081
_cell_formula_units_Z   15
loop_
 _symmetry_equiv_pos_site_id
 _symmetry_equiv_pos_as_xyz
  1  'x, y, z'
loop_
 _atom_site_type_symbol
 _atom_site_label
 _atom_site_symmetry_multiplicity
 _atom_site_fract_x
 _atom_site_fract_y
 _atom_site_fract_z
 _atom_site_occupancy
  Sr  Sr0  1  0.067282  0.140332  0.635276  1
  Sr  Sr1  1  0.176752  0.507779  0.275099  1
  Sr  Sr2  1  0.186476  0.748123  0.693769  1
  Sr  Sr3  1  0.192051  0.344937  0.019887  1
  Sr  Sr4  1  0.378753  0.068092  0.318181  1
  Sr  Sr5  1  0.405219  0.271822  0.724363  1
  Sr  Sr6  1  0.421709  0.891888  0.032456  1
  Sr  Sr7  1  0.525029  0.643022  0.432859  1
  Sr  Sr8  1  0.583699  0.659861  0.834318  1
  Sr  Sr9  1  0.691450  0.053335  0.568995  1
  Sr  Sr10  1  0.711642  0.413088  0.217580  1
  Sr  Sr11  1  0.770928  0.217194  0.956673  1
  Sr  Sr12  1  0.919067  0.543630  0.589833  1
  Sr  Sr13  1  0.937098  0.808476  0.009405  1
  Sr  Sr14  1  0.941861  0.941377  0.298003  1
