# generated using pymatgen
data_Sr
_symmetry_space_group_name_H-M   P1
_cell_length_a   5.83193294
_cell_length_b   8.20633100
_cell_length_c   8.37014267
_cell_angle_alpha   76.32554544
_cell_angle_beta   87.36884456
_cell_angle_gamma   77.46381472
_symmetry_Int_Tables_number   1
_chemical_formula_structural   Sr
_chemical_formula_sum   Sr17
_cell_volume   379.94426252
_cell_formula_units_Z   17
loop_
 _symmetry_equiv_pos_site_id
 _symmetry_equiv_pos_as_xyz
  1  'x, y, z'
loop_
 _atom_site_type_symbol
 _atom_site_label
 _atom_site_symmetry_multiplicity
 _atom_site_fract_x
 _atom_site_fract_y
 _atom_site_fract_z
 _atom_site_occupancy
  Sr  Sr0  1  0.097781  0.180496  0.351633  1
  Sr  Sr1  1  0.136573  0.733534  0.778959  1
  Sr  Sr2  1  0.165686  0.464084  0.496741  1
  Sr  Sr3  1  0.226191  0.819593  0.439745  1
  Sr  Sr4  1  0.271429  0.050982  0.706677  1
  Sr  Sr5  1  0.279708  0.526781  0.108248  1
  Sr  Sr6  1  0.331430  0.348608  0.830812  1
  Sr  Sr7  1  0.376865  0.823840  0.129537  1
  Sr  Sr8  1  0.530685  0.143465  0.166529  1
  Sr  Sr9  1  0.628990  0.428625  0.379335  1
  Sr  Sr10  1  0.652697  0.684977  0.622414  1
  Sr  Sr11  1  0.689465  0.055648  0.504188  1
  Sr  Sr12  1  0.704848  0.905944  0.885358  1
  Sr  Sr13  1  0.792265  0.491273  0.005672  1
  Sr  Sr14  1  0.795012  0.301101  0.714318  1
  Sr  Sr15  1  0.834115  0.749359  0.274540  1
  Sr  Sr16  1  0.981667  0.098620  0.030906  1
