# generated using pymatgen
data_Sr
_symmetry_space_group_name_H-M   P-1
_cell_length_a   5.62392929
_cell_length_b   5.62881255
_cell_length_c   9.06605975
_cell_angle_alpha   97.98763515
_cell_angle_beta   90.38345052
_cell_angle_gamma   97.68990335
_symmetry_Int_Tables_number   2
_chemical_formula_structural   Sr
_chemical_formula_sum   Sr13
_cell_volume   281.56169582
_cell_formula_units_Z   13
loop_
 _symmetry_equiv_pos_site_id
 _symmetry_equiv_pos_as_xyz
  1  'x, y, z'
  2  '-x, -y, -z'
loop_
 _atom_site_type_symbol
 _atom_site_label
 _atom_site_symmetry_multiplicity
 _atom_site_fract_x
 _atom_site_fract_y
 _atom_site_fract_z
 _atom_site_occupancy
  Sr  Sr0  2  0.040299  0.300209  0.073507  1
  Sr  Sr1  2  0.157614  0.075850  0.754020  1
  Sr  Sr2  2  0.186384  0.577090  0.374347  1
  Sr  Sr3  2  0.288281  0.097172  0.455120  1
  Sr  Sr4  2  0.329278  0.588693  0.711775  1
  Sr  Sr5  2  0.367937  0.944221  0.131775  1
  Sr  Sr6  1  0.500000  0.500000  0.000000  1
