# generated using pymatgen
data_Sr
_symmetry_space_group_name_H-M   P1
_cell_length_a   5.67901858
_cell_length_b   7.75524128
_cell_length_c   8.06787061
_cell_angle_alpha   89.40350362
_cell_angle_beta   82.43164347
_cell_angle_gamma   71.14112379
_symmetry_Int_Tables_number   1
_chemical_formula_structural   Sr
_chemical_formula_sum   Sr15
_cell_volume   333.12641713
_cell_formula_units_Z   15
loop_
 _symmetry_equiv_pos_site_id
 _symmetry_equiv_pos_as_xyz
  1  'x, y, z'
loop_
 _atom_site_type_symbol
 _atom_site_label
 _atom_site_symmetry_multiplicity
 _atom_site_fract_x
 _atom_site_fract_y
 _atom_site_fract_z
 _atom_site_occupancy
  Sr  Sr0  1  0.039468  0.465368  0.905306  1
  Sr  Sr1  1  0.150167  0.311870  0.251103  1
  Sr  Sr2  1  0.194212  0.899408  0.338710  1
  Sr  Sr3  1  0.277780  0.007943  0.640743  1
  Sr  Sr4  1  0.351032  0.997703  0.014880  1
  Sr  Sr5  1  0.385290  0.586573  0.069624  1
  Sr  Sr6  1  0.486099  0.490943  0.428822  1
  Sr  Sr7  1  0.489751  0.664052  0.737468  1
  Sr  Sr8  1  0.520502  0.235321  0.745560  1
  Sr  Sr9  1  0.682025  0.066662  0.374306  1
  Sr  Sr10  1  0.754141  0.235108  0.070110  1
  Sr  Sr11  1  0.786377  0.712943  0.209441  1
  Sr  Sr12  1  0.905901  0.903886  0.881556  1
  Sr  Sr13  1  0.935820  0.709890  0.575781  1
  Sr  Sr14  1  0.946718  0.323179  0.599199  1
