# generated using pymatgen
data_Sr
_symmetry_space_group_name_H-M   Cm
_cell_length_a   11.98822484
_cell_length_b   9.50956869
_cell_length_c   8.47039005
_cell_angle_alpha   90.00000000
_cell_angle_beta   133.45711349
_cell_angle_gamma   90.00000000
_symmetry_Int_Tables_number   8
_chemical_formula_structural   Sr
_chemical_formula_sum   Sr32
_cell_volume   700.95408126
_cell_formula_units_Z   32
loop_
 _symmetry_equiv_pos_site_id
 _symmetry_equiv_pos_as_xyz
  1  'x, y, z'
  2  'x, -y, z'
  3  'x+1/2, y+1/2, z'
  4  'x+1/2, -y+1/2, z'
loop_
 _atom_site_type_symbol
 _atom_site_label
 _atom_site_symmetry_multiplicity
 _atom_site_fract_x
 _atom_site_fract_y
 _atom_site_fract_z
 _atom_site_occupancy
  Sr  Sr0  4  0.044933  0.255373  0.063043  1
  Sr  Sr1  4  0.234560  0.752132  0.954671  1
  Sr  Sr2  4  0.281919  0.248107  0.563522  1
  Sr  Sr3  4  0.480301  0.253433  0.447673  1
  Sr  Sr4  2  0.042497  0.500000  0.786479  1
  Sr  Sr5  2  0.042602  0.000000  0.798397  1
  Sr  Sr6  2  0.240400  0.000000  0.293839  1
  Sr  Sr7  2  0.240590  0.500000  0.686201  1
  Sr  Sr8  2  0.246086  0.000000  0.704619  1
  Sr  Sr9  2  0.254298  0.500000  0.297441  1
  Sr  Sr10  2  0.441402  0.500000  0.166933  1
  Sr  Sr11  2  0.446457  0.000000  0.189928  1
