# generated using pymatgen
data_Sr
_symmetry_space_group_name_H-M   P1
_cell_length_a   5.73537381
_cell_length_b   7.96516191
_cell_length_c   8.16616009
_cell_angle_alpha   84.96829759
_cell_angle_beta   77.38591553
_cell_angle_gamma   69.52728262
_symmetry_Int_Tables_number   1
_chemical_formula_structural   Sr
_chemical_formula_sum   Sr15
_cell_volume   341.03165435
_cell_formula_units_Z   15
loop_
 _symmetry_equiv_pos_site_id
 _symmetry_equiv_pos_as_xyz
  1  'x, y, z'
loop_
 _atom_site_type_symbol
 _atom_site_label
 _atom_site_symmetry_multiplicity
 _atom_site_fract_x
 _atom_site_fract_y
 _atom_site_fract_z
 _atom_site_occupancy
  Sr  Sr0  1  0.062155  0.884543  0.816891  1
  Sr  Sr1  1  0.077349  0.700627  0.318884  1
  Sr  Sr2  1  0.113590  0.051945  0.146698  1
  Sr  Sr3  1  0.249852  0.505455  0.660278  1
  Sr  Sr4  1  0.295264  0.302063  0.329589  1
  Sr  Sr5  1  0.295724  0.918956  0.474282  1
  Sr  Sr6  1  0.329616  0.548168  0.994237  1
  Sr  Sr7  1  0.408824  0.141757  0.783327  1
  Sr  Sr8  1  0.627537  0.127438  0.051992  1
  Sr  Sr9  1  0.646325  0.763469  0.123805  1
  Sr  Sr10  1  0.676726  0.710712  0.711511  1
  Sr  Sr11  1  0.685511  0.453924  0.382260  1
  Sr  Sr12  1  0.697864  0.036374  0.462338  1
  Sr  Sr13  1  0.887176  0.268489  0.676572  1
  Sr  Sr14  1  0.894803  0.391982  0.996358  1
