# generated using pymatgen
data_Sr
_symmetry_space_group_name_H-M   P1
_cell_length_a   5.82889597
_cell_length_b   8.00074035
_cell_length_c   8.02657247
_cell_angle_alpha   61.57171918
_cell_angle_beta   80.22075425
_cell_angle_gamma   83.61268051
_symmetry_Int_Tables_number   1
_chemical_formula_structural   Sr
_chemical_formula_sum   Sr14
_cell_volume   324.20212049
_cell_formula_units_Z   14
loop_
 _symmetry_equiv_pos_site_id
 _symmetry_equiv_pos_as_xyz
  1  'x, y, z'
loop_
 _atom_site_type_symbol
 _atom_site_label
 _atom_site_symmetry_multiplicity
 _atom_site_fract_x
 _atom_site_fract_y
 _atom_site_fract_z
 _atom_site_occupancy
  Sr  Sr0  1  0.134667  0.647853  0.886894  1
  Sr  Sr1  1  0.139295  0.849671  0.461158  1
  Sr  Sr2  1  0.208967  0.030613  0.959684  1
  Sr  Sr3  1  0.435196  0.176361  0.460468  1
  Sr  Sr4  1  0.467151  0.589663  0.254490  1
  Sr  Sr5  1  0.506365  0.405123  0.649868  1
  Sr  Sr6  1  0.542178  0.379127  0.031395  1
  Sr  Sr7  1  0.622620  0.813562  0.467910  1
  Sr  Sr8  1  0.627138  0.790277  0.834777  1
  Sr  Sr9  1  0.663824  0.009249  0.057764  1
  Sr  Sr10  1  0.942737  0.133139  0.619261  1
  Sr  Sr11  1  0.984775  0.612988  0.263137  1
  Sr  Sr12  1  0.985223  0.443176  0.707840  1
  Sr  Sr13  1  0.997064  0.247207  0.199453  1
