# generated using pymatgen
data_Sr
_symmetry_space_group_name_H-M   P1
_cell_length_a   2.94424139
_cell_length_b   5.82838795
_cell_length_c   14.31306747
_cell_angle_alpha   101.22278412
_cell_angle_beta   92.17459397
_cell_angle_gamma   90.24307402
_symmetry_Int_Tables_number   1
_chemical_formula_structural   Sr
_chemical_formula_sum   Sr11
_cell_volume   240.72770329
_cell_formula_units_Z   11
loop_
 _symmetry_equiv_pos_site_id
 _symmetry_equiv_pos_as_xyz
  1  'x, y, z'
loop_
 _atom_site_type_symbol
 _atom_site_label
 _atom_site_symmetry_multiplicity
 _atom_site_fract_x
 _atom_site_fract_y
 _atom_site_fract_z
 _atom_site_occupancy
  Sr  Sr0  1  0.219393  0.767967  0.576048  1
  Sr  Sr1  1  0.336420  0.405004  0.679496  1
  Sr  Sr2  1  0.354306  0.223024  0.247074  1
  Sr  Sr3  1  0.360039  0.298213  0.899801  1
  Sr  Sr4  1  0.451674  0.826507  0.319617  1
  Sr  Sr5  1  0.688226  0.116103  0.501258  1
  Sr  Sr6  1  0.768560  0.953976  0.755207  1
  Sr  Sr7  1  0.831316  0.732700  0.912218  1
  Sr  Sr8  1  0.876930  0.160331  0.057581  1
  Sr  Sr9  1  0.892086  0.677427  0.118026  1
  Sr  Sr10  1  0.937899  0.473483  0.413573  1
