# generated using pymatgen
data_Sr
_symmetry_space_group_name_H-M   P1
_cell_length_a   6.34019668
_cell_length_b   6.33897966
_cell_length_c   7.66933185
_cell_angle_alpha   68.63030269
_cell_angle_beta   67.28849005
_cell_angle_gamma   86.23834656
_symmetry_Int_Tables_number   1
_chemical_formula_structural   Sr
_chemical_formula_sum   Sr11
_cell_volume   263.77158151
_cell_formula_units_Z   11
loop_
 _symmetry_equiv_pos_site_id
 _symmetry_equiv_pos_as_xyz
  1  'x, y, z'
loop_
 _atom_site_type_symbol
 _atom_site_label
 _atom_site_symmetry_multiplicity
 _atom_site_fract_x
 _atom_site_fract_y
 _atom_site_fract_z
 _atom_site_occupancy
  Sr  Sr0  1  0.212958  0.080891  0.761712  1
  Sr  Sr1  1  0.226004  0.203130  0.196231  1
  Sr  Sr2  1  0.236899  0.504288  0.395203  1
  Sr  Sr3  1  0.416144  0.569988  0.729707  1
  Sr  Sr4  1  0.496975  0.820887  0.002590  1
  Sr  Sr5  1  0.525191  0.968749  0.372997  1
  Sr  Sr6  1  0.700431  0.301943  0.459397  1
  Sr  Sr7  1  0.772930  0.241156  0.843459  1
  Sr  Sr8  1  0.915014  0.488745  0.026236  1
  Sr  Sr9  1  0.928664  0.823036  0.612548  1
  Sr  Sr10  1  0.930088  0.814429  0.200176  1
