# generated using pymatgen
data_Sr
_symmetry_space_group_name_H-M   P1
_cell_length_a   6.14394991
_cell_length_b   6.21321471
_cell_length_c   6.91518432
_cell_angle_alpha   73.92951497
_cell_angle_beta   73.70277546
_cell_angle_gamma   86.15104330
_symmetry_Int_Tables_number   1
_chemical_formula_structural   Sr
_chemical_formula_sum   Sr10
_cell_volume   243.45389295
_cell_formula_units_Z   10
loop_
 _symmetry_equiv_pos_site_id
 _symmetry_equiv_pos_as_xyz
  1  'x, y, z'
loop_
 _atom_site_type_symbol
 _atom_site_label
 _atom_site_symmetry_multiplicity
 _atom_site_fract_x
 _atom_site_fract_y
 _atom_site_fract_z
 _atom_site_occupancy
  Sr  Sr0  1  0.039145  0.671850  0.760088  1
  Sr  Sr1  1  0.048250  0.671495  0.255974  1
  Sr  Sr2  1  0.225250  0.172867  0.086301  1
  Sr  Sr3  1  0.233149  0.181387  0.579172  1
  Sr  Sr4  1  0.528614  0.488216  0.691909  1
  Sr  Sr5  1  0.528788  0.870916  0.333888  1
  Sr  Sr6  1  0.530516  0.878678  0.836258  1
  Sr  Sr7  1  0.538134  0.479440  0.171710  1
  Sr  Sr8  1  0.830990  0.185550  0.432504  1
  Sr  Sr9  1  0.833321  0.189876  0.928657  1
