# generated using pymatgen
data_Sr
_symmetry_space_group_name_H-M   Pmmn
_cell_length_a   3.18719754
_cell_length_b   4.50416877
_cell_length_c   3.16101669
_cell_angle_alpha   90.00000000
_cell_angle_beta   90.00000000
_cell_angle_gamma   90.00000000
_symmetry_Int_Tables_number   59
_chemical_formula_structural   Sr
_chemical_formula_sum   Sr2
_cell_volume   45.37853033
_cell_formula_units_Z   2
loop_
 _symmetry_equiv_pos_site_id
 _symmetry_equiv_pos_as_xyz
  1  'x, y, z'
  2  '-x, -y, -z+1/2'
  3  'z+3/4, -y, x+1/4'
  4  '-z+1/4, y, -x+1/4'
  5  '-z+1/4, -y, -x+1/4'
  6  'z+3/4, y, x+1/4'
  7  '-x, y, -z+1/2'
  8  'x, -y, z'
  9  'x, -y, -z+1/2'
  10  '-x, y, z'
  11  'z+3/4, y, -x+1/4'
  12  '-z+1/4, -y, x+1/4'
  13  '-x, -y, z'
  14  'x, y, -z+1/2'
  15  '-z+1/4, y, x+1/4'
  16  'z+3/4, -y, -x+1/4'
  17  'x+1/2, y+1/2, z+1/2'
  18  '-x+1/2, -y+1/2, -z'
  19  'z+1/4, -y+1/2, x+3/4'
  20  '-z+3/4, y+1/2, -x+3/4'
  21  '-z+3/4, -y+1/2, -x+3/4'
  22  'z+1/4, y+1/2, x+3/4'
  23  '-x+1/2, y+1/2, -z'
  24  'x+1/2, -y+1/2, z+1/2'
  25  'x+1/2, -y+1/2, -z'
  26  '-x+1/2, y+1/2, z+1/2'
  27  'z+1/4, y+1/2, -x+3/4'
  28  '-z+3/4, -y+1/2, x+3/4'
  29  '-x+1/2, -y+1/2, z+1/2'
  30  'x+1/2, y+1/2, -z'
  31  '-z+3/4, y+1/2, x+3/4'
  32  'z+1/4, -y+1/2, -x+3/4'
loop_
 _atom_site_type_symbol
 _atom_site_label
 _atom_site_symmetry_multiplicity
 _atom_site_fract_x
 _atom_site_fract_y
 _atom_site_fract_z
 _atom_site_occupancy
  Sr  Sr0  2  0.000000  0.000000  0.234248  1
