# generated using pymatgen
data_Sr
_symmetry_space_group_name_H-M   Cmm2
_cell_length_a   3.22643519
_cell_length_b   25.29356713
_cell_length_c   8.19387829
_cell_angle_alpha   90.00000000
_cell_angle_beta   90.00000000
_cell_angle_gamma   90.00000000
_symmetry_Int_Tables_number   35
_chemical_formula_structural   Sr
_chemical_formula_sum   Sr30
_cell_volume   668.68646981
_cell_formula_units_Z   30
loop_
 _symmetry_equiv_pos_site_id
 _symmetry_equiv_pos_as_xyz
  1  'x, y, z'
  2  '-x, -y, z'
  3  '-x, y, z'
  4  'x, -y, z'
  5  'x+1/2, y+1/2, z'
  6  '-x+1/2, -y+1/2, z'
  7  '-x+1/2, y+1/2, z'
  8  'x+1/2, -y+1/2, z'
loop_
 _atom_site_type_symbol
 _atom_site_label
 _atom_site_symmetry_multiplicity
 _atom_site_fract_x
 _atom_site_fract_y
 _atom_site_fract_z
 _atom_site_occupancy
  Sr  Sr0  4  0.000000  0.092568  0.183835  1
  Sr  Sr1  4  0.000000  0.093855  0.837709  1
  Sr  Sr2  4  0.000000  0.203960  0.342246  1
  Sr  Sr3  4  0.000000  0.204158  0.687733  1
  Sr  Sr4  4  0.000000  0.306931  0.014467  1
  Sr  Sr5  4  0.000000  0.392095  0.509946  1
  Sr  Sr6  2  0.000000  0.000000  0.458523  1
  Sr  Sr7  2  0.000000  0.500000  0.107829  1
  Sr  Sr8  2  0.000000  0.500000  0.768011  1
