# generated using pymatgen
data_Sr
_symmetry_space_group_name_H-M   Cm
_cell_length_a   16.83142481
_cell_length_b   3.33998628
_cell_length_c   10.81605666
_cell_angle_alpha   90.00000000
_cell_angle_beta   121.29397577
_cell_angle_gamma   90.00000000
_symmetry_Int_Tables_number   8
_chemical_formula_structural   Sr
_chemical_formula_sum   Sr22
_cell_volume   519.58119068
_cell_formula_units_Z   22
loop_
 _symmetry_equiv_pos_site_id
 _symmetry_equiv_pos_as_xyz
  1  'x, y, z'
  2  'x, -y, z'
  3  'x+1/2, y+1/2, z'
  4  'x+1/2, -y+1/2, z'
loop_
 _atom_site_type_symbol
 _atom_site_label
 _atom_site_symmetry_multiplicity
 _atom_site_fract_x
 _atom_site_fract_y
 _atom_site_fract_z
 _atom_site_occupancy
  Sr  Sr0  2  0.098096  0.500000  0.941789  1
  Sr  Sr1  2  0.115092  0.000000  0.237182  1
  Sr  Sr2  2  0.134920  0.000000  0.694648  1
  Sr  Sr3  2  0.195440  0.500000  0.515565  1
  Sr  Sr4  2  0.252177  0.000000  0.173467  1
  Sr  Sr5  2  0.295341  0.500000  0.976401  1
  Sr  Sr6  2  0.324144  0.500000  0.428042  1
  Sr  Sr7  2  0.372743  0.500000  0.769750  1
  Sr  Sr8  2  0.463165  0.000000  0.046870  1
  Sr  Sr9  2  0.467009  0.000000  0.643050  1
  Sr  Sr10  2  0.471625  0.000000  0.352088  1
