# generated using pymatgen
data_Sr
_symmetry_space_group_name_H-M   P1
_cell_length_a   6.24316863
_cell_length_b   7.76380929
_cell_length_c   8.16965982
_cell_angle_alpha   82.07827384
_cell_angle_beta   68.99604442
_cell_angle_gamma   75.67140981
_symmetry_Int_Tables_number   1
_chemical_formula_structural   Sr
_chemical_formula_sum   Sr19
_cell_volume   357.65020218
_cell_formula_units_Z   19
loop_
 _symmetry_equiv_pos_site_id
 _symmetry_equiv_pos_as_xyz
  1  'x, y, z'
loop_
 _atom_site_type_symbol
 _atom_site_label
 _atom_site_symmetry_multiplicity
 _atom_site_fract_x
 _atom_site_fract_y
 _atom_site_fract_z
 _atom_site_occupancy
  Sr  Sr0  1  0.002203  0.193041  0.667691  1
  Sr  Sr1  1  0.105868  0.776610  0.906887  1
  Sr  Sr2  1  0.132880  0.878869  0.236705  1
  Sr  Sr3  1  0.164441  0.189540  0.031697  1
  Sr  Sr4  1  0.234369  0.505866  0.220712  1
  Sr  Sr5  1  0.265967  0.148754  0.333888  1
  Sr  Sr6  1  0.343145  0.461028  0.520135  1
  Sr  Sr7  1  0.347016  0.799047  0.534079  1
  Sr  Sr8  1  0.414838  0.020764  0.736307  1
  Sr  Sr9  1  0.460820  0.440899  0.840638  1
  Sr  Sr10  1  0.544228  0.738165  0.976539  1
  Sr  Sr11  1  0.684998  0.924779  0.270780  1
  Sr  Sr12  1  0.686828  0.282732  0.139626  1
  Sr  Sr13  1  0.713789  0.040892  0.927689  1
  Sr  Sr14  1  0.714018  0.175147  0.477991  1
  Sr  Sr15  1  0.793113  0.580377  0.196998  1
  Sr  Sr16  1  0.797926  0.520363  0.523742  1
  Sr  Sr17  1  0.892118  0.818957  0.590908  1
  Sr  Sr18  1  0.944155  0.493320  0.841395  1
