# generated using pymatgen
data_Sr
_symmetry_space_group_name_H-M   P1
_cell_length_a   5.38918911
_cell_length_b   5.40080123
_cell_length_c   8.94208584
_cell_angle_alpha   88.83573890
_cell_angle_beta   74.77982297
_cell_angle_gamma   87.00093374
_symmetry_Int_Tables_number   1
_chemical_formula_structural   Sr
_chemical_formula_sum   Sr13
_cell_volume   250.78886394
_cell_formula_units_Z   13
loop_
 _symmetry_equiv_pos_site_id
 _symmetry_equiv_pos_as_xyz
  1  'x, y, z'
loop_
 _atom_site_type_symbol
 _atom_site_label
 _atom_site_symmetry_multiplicity
 _atom_site_fract_x
 _atom_site_fract_y
 _atom_site_fract_z
 _atom_site_occupancy
  Sr  Sr0  1  0.085941  0.900815  0.949461  1
  Sr  Sr1  1  0.107102  0.079874  0.674239  1
  Sr  Sr2  1  0.111406  0.998163  0.389313  1
  Sr  Sr3  1  0.194548  0.386062  0.185643  1
  Sr  Sr4  1  0.240486  0.433133  0.846920  1
  Sr  Sr5  1  0.354932  0.635649  0.533519  1
  Sr  Sr6  1  0.456977  0.805922  0.110817  1
  Sr  Sr7  1  0.581010  0.178377  0.452048  1
  Sr  Sr8  1  0.611868  0.958535  0.756508  1
  Sr  Sr9  1  0.712156  0.479472  0.866119  1
  Sr  Sr10  1  0.721230  0.214199  0.128610  1
  Sr  Sr11  1  0.802792  0.713524  0.277733  1
  Sr  Sr12  1  0.885035  0.474766  0.561673  1
