# generated using pymatgen
data_Sr
_symmetry_space_group_name_H-M   P1
_cell_length_a   5.91824084
_cell_length_b   5.93918672
_cell_length_c   6.33194323
_cell_angle_alpha   101.19559878
_cell_angle_beta   107.00025108
_cell_angle_gamma   115.92831454
_symmetry_Int_Tables_number   1
_chemical_formula_structural   Sr
_chemical_formula_sum   Sr7
_cell_volume   177.49344789
_cell_formula_units_Z   7
loop_
 _symmetry_equiv_pos_site_id
 _symmetry_equiv_pos_as_xyz
  1  'x, y, z'
loop_
 _atom_site_type_symbol
 _atom_site_label
 _atom_site_symmetry_multiplicity
 _atom_site_fract_x
 _atom_site_fract_y
 _atom_site_fract_z
 _atom_site_occupancy
  Sr  Sr0  1  0.006605  0.996015  0.336180  1
  Sr  Sr1  1  0.045932  0.510993  0.079094  1
  Sr  Sr2  1  0.108954  0.501913  0.509498  1
  Sr  Sr3  1  0.397980  0.313168  0.004927  1
  Sr  Sr4  1  0.495046  0.856372  0.937780  1
  Sr  Sr5  1  0.563899  0.149917  0.500011  1
  Sr  Sr6  1  0.767676  0.763108  0.653506  1
