# generated using pymatgen
data_Sr
_symmetry_space_group_name_H-M   P1
_cell_length_a   5.84858132
_cell_length_b   6.86238150
_cell_length_c   8.04021853
_cell_angle_alpha   91.43315292
_cell_angle_beta   96.35659894
_cell_angle_gamma   108.76090193
_symmetry_Int_Tables_number   1
_chemical_formula_structural   Sr
_chemical_formula_sum   Sr14
_cell_volume   303.04138257
_cell_formula_units_Z   14
loop_
 _symmetry_equiv_pos_site_id
 _symmetry_equiv_pos_as_xyz
  1  'x, y, z'
loop_
 _atom_site_type_symbol
 _atom_site_label
 _atom_site_symmetry_multiplicity
 _atom_site_fract_x
 _atom_site_fract_y
 _atom_site_fract_z
 _atom_site_occupancy
  Sr  Sr0  1  0.137457  0.284592  0.402857  1
  Sr  Sr1  1  0.150334  0.691731  0.421402  1
  Sr  Sr2  1  0.181050  0.510386  0.104775  1
  Sr  Sr3  1  0.183561  0.983392  0.161134  1
  Sr  Sr4  1  0.327528  0.802801  0.861555  1
  Sr  Sr5  1  0.348432  0.262749  0.901909  1
  Sr  Sr6  1  0.439764  0.078614  0.587163  1
  Sr  Sr7  1  0.500931  0.557039  0.647368  1
  Sr  Sr8  1  0.647917  0.372152  0.298157  1
  Sr  Sr9  1  0.667822  0.847655  0.316094  1
  Sr  Sr10  1  0.766550  0.648359  0.989392  1
  Sr  Sr11  1  0.770494  0.125747  0.017975  1
  Sr  Sr12  1  0.904187  0.943487  0.678646  1
  Sr  Sr13  1  0.912997  0.406197  0.694862  1
