# generated using pymatgen
data_Sr
_symmetry_space_group_name_H-M   P1
_cell_length_a   4.75390002
_cell_length_b   6.13172638
_cell_length_c   6.50966470
_cell_angle_alpha   92.00713430
_cell_angle_beta   110.66991902
_cell_angle_gamma   89.99921227
_symmetry_Int_Tables_number   1
_chemical_formula_structural   Sr
_chemical_formula_sum   Sr6
_cell_volume   177.41523721
_cell_formula_units_Z   6
loop_
 _symmetry_equiv_pos_site_id
 _symmetry_equiv_pos_as_xyz
  1  'x, y, z'
loop_
 _atom_site_type_symbol
 _atom_site_label
 _atom_site_symmetry_multiplicity
 _atom_site_fract_x
 _atom_site_fract_y
 _atom_site_fract_z
 _atom_site_occupancy
  Sr  Sr0  1  0.133045  0.305359  0.226906  1
  Sr  Sr1  1  0.277921  0.753509  0.452926  1
  Sr  Sr2  1  0.461885  0.272333  0.830330  1
  Sr  Sr3  1  0.559969  0.814897  0.056394  1
  Sr  Sr4  1  0.824327  0.126553  0.534976  1
  Sr  Sr5  1  0.938943  0.636428  0.771643  1
