# generated using pymatgen
data_Sr
_symmetry_space_group_name_H-M   P1
_cell_length_a   6.00729409
_cell_length_b   6.16830503
_cell_length_c   9.29205381
_cell_angle_alpha   81.29011009
_cell_angle_beta   83.72765135
_cell_angle_gamma   62.98451440
_symmetry_Int_Tables_number   1
_chemical_formula_structural   Sr
_chemical_formula_sum   Sr13
_cell_volume   302.88719896
_cell_formula_units_Z   13
loop_
 _symmetry_equiv_pos_site_id
 _symmetry_equiv_pos_as_xyz
  1  'x, y, z'
loop_
 _atom_site_type_symbol
 _atom_site_label
 _atom_site_symmetry_multiplicity
 _atom_site_fract_x
 _atom_site_fract_y
 _atom_site_fract_z
 _atom_site_occupancy
  Sr  Sr0  1  0.119705  0.551880  0.090265  1
  Sr  Sr1  1  0.138060  0.944362  0.686574  1
  Sr  Sr2  1  0.156257  0.445366  0.793147  1
  Sr  Sr3  1  0.194216  0.013084  0.014266  1
  Sr  Sr4  1  0.219876  0.187139  0.345323  1
  Sr  Sr5  1  0.351702  0.532228  0.450933  1
  Sr  Sr6  1  0.609299  0.763148  0.228477  1
  Sr  Sr7  1  0.609535  0.582743  0.847579  1
  Sr  Sr8  1  0.618313  0.016063  0.597852  1
  Sr  Sr9  1  0.646786  0.328556  0.127099  1
  Sr  Sr10  1  0.698151  0.033002  0.902579  1
  Sr  Sr11  1  0.803005  0.491495  0.555854  1
  Sr  Sr12  1  0.911830  0.965228  0.341001  1
