# generated using pymatgen
data_Sr
_symmetry_space_group_name_H-M   Cm
_cell_length_a   8.50191122
_cell_length_b   13.71004287
_cell_length_c   6.41344383
_cell_angle_alpha   90.00000000
_cell_angle_beta   120.15744224
_cell_angle_gamma   90.00000000
_symmetry_Int_Tables_number   8
_chemical_formula_structural   Sr
_chemical_formula_sum   Sr28
_cell_volume   646.37732394
_cell_formula_units_Z   28
loop_
 _symmetry_equiv_pos_site_id
 _symmetry_equiv_pos_as_xyz
  1  'x, y, z'
  2  'x, -y, z'
  3  'x+1/2, y+1/2, z'
  4  'x+1/2, -y+1/2, z'
loop_
 _atom_site_type_symbol
 _atom_site_label
 _atom_site_symmetry_multiplicity
 _atom_site_fract_x
 _atom_site_fract_y
 _atom_site_fract_z
 _atom_site_occupancy
  Sr  Sr0  4  0.026362  0.385698  0.238630  1
  Sr  Sr1  4  0.072478  0.186220  0.997088  1
  Sr  Sr2  4  0.112802  0.381762  0.760437  1
  Sr  Sr3  4  0.250885  0.186104  0.638814  1
  Sr  Sr4  4  0.383859  0.306629  0.347867  1
  Sr  Sr5  2  0.217662  0.000000  0.301595  1
  Sr  Sr6  2  0.283110  0.000000  0.856135  1
  Sr  Sr7  2  0.341413  0.500000  0.181726  1
  Sr  Sr8  2  0.394721  0.500000  0.684541  1
