# generated using pymatgen
data_Sr
_symmetry_space_group_name_H-M   Cm
_cell_length_a   16.59971576
_cell_length_b   16.19735322
_cell_length_c   2.88727627
_cell_angle_alpha   90.00000000
_cell_angle_beta   97.23045898
_cell_angle_gamma   90.00000000
_symmetry_Int_Tables_number   8
_chemical_formula_structural   Sr
_chemical_formula_sum   Sr36
_cell_volume   770.13294656
_cell_formula_units_Z   36
loop_
 _symmetry_equiv_pos_site_id
 _symmetry_equiv_pos_as_xyz
  1  'x, y, z'
  2  'x, -y, z'
  3  'x+1/2, y+1/2, z'
  4  'x+1/2, -y+1/2, z'
loop_
 _atom_site_type_symbol
 _atom_site_label
 _atom_site_symmetry_multiplicity
 _atom_site_fract_x
 _atom_site_fract_y
 _atom_site_fract_z
 _atom_site_occupancy
  Sr  Sr0  4  0.009705  0.673234  0.961290  1
  Sr  Sr1  4  0.018138  0.165373  0.530823  1
  Sr  Sr2  4  0.176032  0.338931  0.173006  1
  Sr  Sr3  4  0.180943  0.167662  0.173112  1
  Sr  Sr4  4  0.346291  0.160583  0.257917  1
  Sr  Sr5  4  0.350271  0.333020  0.274076  1
  Sr  Sr6  2  0.130408  0.500000  0.502166  1
  Sr  Sr7  2  0.139061  0.000000  0.081176  1
  Sr  Sr8  2  0.300308  0.500000  0.903764  1
  Sr  Sr9  2  0.301180  0.000000  0.701655  1
  Sr  Sr10  2  0.471911  0.500000  0.806218  1
  Sr  Sr11  2  0.472249  0.000000  0.835126  1
