# generated using pymatgen
data_Sr
_symmetry_space_group_name_H-M   P1
_cell_length_a   6.08709825
_cell_length_b   6.57248108
_cell_length_c   8.05354652
_cell_angle_alpha   72.56002841
_cell_angle_beta   71.06640094
_cell_angle_gamma   76.47819860
_symmetry_Int_Tables_number   1
_chemical_formula_structural   Sr
_chemical_formula_sum   Sr13
_cell_volume   287.40969392
_cell_formula_units_Z   13
loop_
 _symmetry_equiv_pos_site_id
 _symmetry_equiv_pos_as_xyz
  1  'x, y, z'
loop_
 _atom_site_type_symbol
 _atom_site_label
 _atom_site_symmetry_multiplicity
 _atom_site_fract_x
 _atom_site_fract_y
 _atom_site_fract_z
 _atom_site_occupancy
  Sr  Sr0  1  0.004481  0.588399  0.118827  1
  Sr  Sr1  1  0.104700  0.710092  0.505913  1
  Sr  Sr2  1  0.303552  0.994717  0.640578  1
  Sr  Sr3  1  0.348954  0.439611  0.776026  1
  Sr  Sr4  1  0.398663  0.153381  0.123056  1
  Sr  Sr5  1  0.406951  0.723324  0.100910  1
  Sr  Sr6  1  0.463126  0.339291  0.364270  1
  Sr  Sr7  1  0.617296  0.771773  0.374947  1
  Sr  Sr8  1  0.688051  0.925521  0.755981  1
  Sr  Sr9  1  0.788405  0.480357  0.892970  1
  Sr  Sr10  1  0.861483  0.368439  0.541891  1
  Sr  Sr11  1  0.925447  0.103106  0.303460  1
  Sr  Sr12  1  0.966961  0.030897  0.958117  1
