# generated using pymatgen
data_Sr
_symmetry_space_group_name_H-M   P1
_cell_length_a   6.06659136
_cell_length_b   6.76081327
_cell_length_c   8.09714458
_cell_angle_alpha   72.51845759
_cell_angle_beta   72.26518815
_cell_angle_gamma   75.42735213
_symmetry_Int_Tables_number   1
_chemical_formula_structural   Sr
_chemical_formula_sum   Sr13
_cell_volume   296.99051539
_cell_formula_units_Z   13
loop_
 _symmetry_equiv_pos_site_id
 _symmetry_equiv_pos_as_xyz
  1  'x, y, z'
loop_
 _atom_site_type_symbol
 _atom_site_label
 _atom_site_symmetry_multiplicity
 _atom_site_fract_x
 _atom_site_fract_y
 _atom_site_fract_z
 _atom_site_occupancy
  Sr  Sr0  1  0.038593  0.091975  0.809203  1
  Sr  Sr1  1  0.089290  0.379601  0.141050  1
  Sr  Sr2  1  0.117016  0.777015  0.121715  1
  Sr  Sr3  1  0.154372  0.967189  0.372214  1
  Sr  Sr4  1  0.338940  0.412796  0.419483  1
  Sr  Sr5  1  0.395288  0.560531  0.770468  1
  Sr  Sr6  1  0.467363  0.129228  0.932810  1
  Sr  Sr7  1  0.523208  0.998050  0.594209  1
  Sr  Sr8  1  0.629323  0.758389  0.341298  1
  Sr  Sr9  1  0.650783  0.673159  0.995881  1
  Sr  Sr10  1  0.694269  0.225186  0.154939  1
  Sr  Sr11  1  0.806784  0.320754  0.525428  1
  Sr  Sr12  1  0.972466  0.642234  0.663008  1
