# generated using pymatgen
data_Sr
_symmetry_space_group_name_H-M   P1
_cell_length_a   5.70108303
_cell_length_b   8.44185113
_cell_length_c   8.56393307
_cell_angle_alpha   92.34497774
_cell_angle_beta   91.27544976
_cell_angle_gamma   92.34456181
_symmetry_Int_Tables_number   1
_chemical_formula_structural   Sr
_chemical_formula_sum   Sr19
_cell_volume   411.35420647
_cell_formula_units_Z   19
loop_
 _symmetry_equiv_pos_site_id
 _symmetry_equiv_pos_as_xyz
  1  'x, y, z'
loop_
 _atom_site_type_symbol
 _atom_site_label
 _atom_site_symmetry_multiplicity
 _atom_site_fract_x
 _atom_site_fract_y
 _atom_site_fract_z
 _atom_site_occupancy
  Sr  Sr0  1  0.070813  0.457689  0.788781  1
  Sr  Sr1  1  0.143522  0.665989  0.066523  1
  Sr  Sr2  1  0.156081  0.162436  0.937511  1
  Sr  Sr3  1  0.212914  0.383397  0.213956  1
  Sr  Sr4  1  0.218664  0.134216  0.611142  1
  Sr  Sr5  1  0.327802  0.765627  0.394095  1
  Sr  Sr6  1  0.338254  0.815123  0.725250  1
  Sr  Sr7  1  0.406475  0.097005  0.328240  1
  Sr  Sr8  1  0.430691  0.463040  0.528842  1
  Sr  Sr9  1  0.525951  0.929014  0.041555  1
  Sr  Sr10  1  0.579509  0.506398  0.859396  1
  Sr  Sr11  1  0.663431  0.165165  0.781346  1
  Sr  Sr12  1  0.680293  0.633669  0.184528  1
  Sr  Sr13  1  0.711659  0.297611  0.116231  1
  Sr  Sr14  1  0.787714  0.953301  0.489830  1
  Sr  Sr15  1  0.848634  0.294608  0.445988  1
  Sr  Sr16  1  0.849595  0.816045  0.802081  1
  Sr  Sr17  1  0.893761  0.626778  0.491471  1
  Sr  Sr18  1  0.968759  0.971962  0.186776  1
