# generated using pymatgen
data_Sr
_symmetry_space_group_name_H-M   P-1
_cell_length_a   5.68469006
_cell_length_b   7.63862338
_cell_length_c   8.23808039
_cell_angle_alpha   81.28136454
_cell_angle_beta   73.17904626
_cell_angle_gamma   79.86776709
_symmetry_Int_Tables_number   2
_chemical_formula_structural   Sr
_chemical_formula_sum   Sr15
_cell_volume   335.14859698
_cell_formula_units_Z   15
loop_
 _symmetry_equiv_pos_site_id
 _symmetry_equiv_pos_as_xyz
  1  'x, y, z'
  2  '-x, -y, -z'
loop_
 _atom_site_type_symbol
 _atom_site_label
 _atom_site_symmetry_multiplicity
 _atom_site_fract_x
 _atom_site_fract_y
 _atom_site_fract_z
 _atom_site_occupancy
  Sr  Sr0  2  0.125909  0.193783  0.741561  1
  Sr  Sr1  2  0.139444  0.346766  0.394548  1
  Sr  Sr2  2  0.152712  0.524667  0.839692  1
  Sr  Sr3  2  0.203176  0.104007  0.084476  1
  Sr  Sr4  2  0.273604  0.888186  0.444794  1
  Sr  Sr5  2  0.376440  0.832430  0.774379  1
  Sr  Sr6  2  0.387693  0.661105  0.123495  1
  Sr  Sr7  1  0.500000  0.500000  0.500000  1
