# generated using pymatgen
data_Sr
_symmetry_space_group_name_H-M   P1
_cell_length_a   5.73353778
_cell_length_b   5.91527599
_cell_length_c   6.05646783
_cell_angle_alpha   81.87329440
_cell_angle_beta   62.71530095
_cell_angle_gamma   61.65593620
_symmetry_Int_Tables_number   1
_chemical_formula_structural   Sr
_chemical_formula_sum   Sr5
_cell_volume   159.90243711
_cell_formula_units_Z   5
loop_
 _symmetry_equiv_pos_site_id
 _symmetry_equiv_pos_as_xyz
  1  'x, y, z'
loop_
 _atom_site_type_symbol
 _atom_site_label
 _atom_site_symmetry_multiplicity
 _atom_site_fract_x
 _atom_site_fract_y
 _atom_site_fract_z
 _atom_site_occupancy
  Sr  Sr0  1  0.034462  0.850909  0.008507  1
  Sr  Sr1  1  0.260837  0.221835  0.157385  1
  Sr  Sr2  1  0.376293  0.642917  0.362493  1
  Sr  Sr3  1  0.561897  0.030004  0.603561  1
  Sr  Sr4  1  0.785924  0.421797  0.712522  1
