# generated using pymatgen
data_Sr
_symmetry_space_group_name_H-M   Pm
_cell_length_a   8.34946404
_cell_length_b   3.05025425
_cell_length_c   8.35791658
_cell_angle_alpha   90.00000000
_cell_angle_beta   102.28602895
_cell_angle_gamma   90.00000000
_symmetry_Int_Tables_number   6
_chemical_formula_structural   Sr
_chemical_formula_sum   Sr9
_cell_volume   207.98430813
_cell_formula_units_Z   9
loop_
 _symmetry_equiv_pos_site_id
 _symmetry_equiv_pos_as_xyz
  1  'x, y, z'
  2  'x, -y, z'
loop_
 _atom_site_type_symbol
 _atom_site_label
 _atom_site_symmetry_multiplicity
 _atom_site_fract_x
 _atom_site_fract_y
 _atom_site_fract_z
 _atom_site_occupancy
  Sr  Sr0  1  0.006132  0.000000  0.008533  1
  Sr  Sr1  1  0.293598  0.000000  0.782694  1
  Sr  Sr2  1  0.316936  0.500000  0.455717  1
  Sr  Sr3  1  0.353563  0.500000  0.127733  1
  Sr  Sr4  1  0.633397  0.000000  0.497679  1
  Sr  Sr5  1  0.636708  0.500000  0.840178  1
  Sr  Sr6  1  0.688914  0.500000  0.178383  1
  Sr  Sr7  1  0.955349  0.500000  0.663444  1
  Sr  Sr8  1  0.991115  0.000000  0.364341  1
