# generated using pymatgen
data_Sr
_symmetry_space_group_name_H-M   P1
_cell_length_a   5.95004554
_cell_length_b   6.04647408
_cell_length_c   7.49874287
_cell_angle_alpha   102.24579225
_cell_angle_beta   94.91173473
_cell_angle_gamma   93.05672552
_symmetry_Int_Tables_number   1
_chemical_formula_structural   Sr
_chemical_formula_sum   Sr11
_cell_volume   261.96526906
_cell_formula_units_Z   11
loop_
 _symmetry_equiv_pos_site_id
 _symmetry_equiv_pos_as_xyz
  1  'x, y, z'
loop_
 _atom_site_type_symbol
 _atom_site_label
 _atom_site_symmetry_multiplicity
 _atom_site_fract_x
 _atom_site_fract_y
 _atom_site_fract_z
 _atom_site_occupancy
  Sr  Sr0  1  0.100088  0.965968  0.091252  1
  Sr  Sr1  1  0.257941  0.406018  0.901289  1
  Sr  Sr2  1  0.309205  0.852483  0.665965  1
  Sr  Sr3  1  0.355935  0.276253  0.497395  1
  Sr  Sr4  1  0.420006  0.652048  0.292931  1
  Sr  Sr5  1  0.589161  0.096495  0.188832  1
  Sr  Sr6  1  0.681374  0.669935  0.884927  1
  Sr  Sr7  1  0.728150  0.140883  0.814459  1
  Sr  Sr8  1  0.872077  0.882527  0.478402  1
  Sr  Sr9  1  0.904471  0.449875  0.598253  1
  Sr  Sr10  1  0.949915  0.457629  0.187027  1
