# generated using pymatgen
data_Sr
_symmetry_space_group_name_H-M   P1
_cell_length_a   8.12375296
_cell_length_b   8.30028839
_cell_length_c   8.38438414
_cell_angle_alpha   79.96965595
_cell_angle_beta   63.57570398
_cell_angle_gamma   62.94452528
_symmetry_Int_Tables_number   1
_chemical_formula_structural   Sr
_chemical_formula_sum   Sr21
_cell_volume   450.60050733
_cell_formula_units_Z   21
loop_
 _symmetry_equiv_pos_site_id
 _symmetry_equiv_pos_as_xyz
  1  'x, y, z'
loop_
 _atom_site_type_symbol
 _atom_site_label
 _atom_site_symmetry_multiplicity
 _atom_site_fract_x
 _atom_site_fract_y
 _atom_site_fract_z
 _atom_site_occupancy
  Sr  Sr0  1  0.083757  0.598816  0.893006  1
  Sr  Sr1  1  0.106680  0.401800  0.288051  1
  Sr  Sr2  1  0.144744  0.212357  0.971733  1
  Sr  Sr3  1  0.197619  0.141707  0.561119  1
  Sr  Sr4  1  0.253903  0.828103  0.374548  1
  Sr  Sr5  1  0.273372  0.475990  0.523730  1
  Sr  Sr6  1  0.295392  0.645814  0.096015  1
  Sr  Sr7  1  0.383521  0.780450  0.676480  1
  Sr  Sr8  1  0.486904  0.305055  0.901531  1
  Sr  Sr9  1  0.486994  0.874425  0.934904  1
  Sr  Sr10  1  0.521311  0.049301  0.180356  1
  Sr  Sr11  1  0.531431  0.135841  0.599752  1
  Sr  Sr12  1  0.619825  0.347109  0.206313  1
  Sr  Sr13  1  0.710473  0.449396  0.542638  1
  Sr  Sr14  1  0.719042  0.640203  0.174122  1
  Sr  Sr15  1  0.801594  0.813748  0.375445  1
  Sr  Sr16  1  0.828546  0.393722  0.830456  1
  Sr  Sr17  1  0.863245  0.704267  0.675973  1
  Sr  Sr18  1  0.885985  0.009258  0.734160  1
  Sr  Sr19  1  0.945286  0.124827  0.327135  1
  Sr  Sr20  1  0.964735  0.958714  0.027459  1
