# generated using pymatgen
data_Sr
_symmetry_space_group_name_H-M   P1
_cell_length_a   5.47564054
_cell_length_b   6.24899851
_cell_length_c   7.47564257
_cell_angle_alpha   104.06395341
_cell_angle_beta   96.95737491
_cell_angle_gamma   112.10530759
_symmetry_Int_Tables_number   1
_chemical_formula_structural   Sr
_chemical_formula_sum   Sr11
_cell_volume   223.36622927
_cell_formula_units_Z   11
loop_
 _symmetry_equiv_pos_site_id
 _symmetry_equiv_pos_as_xyz
  1  'x, y, z'
loop_
 _atom_site_type_symbol
 _atom_site_label
 _atom_site_symmetry_multiplicity
 _atom_site_fract_x
 _atom_site_fract_y
 _atom_site_fract_z
 _atom_site_occupancy
  Sr  Sr0  1  0.115889  0.362754  0.353745  1
  Sr  Sr1  1  0.245546  0.709688  0.766717  1
  Sr  Sr2  1  0.355210  0.976816  0.496428  1
  Sr  Sr3  1  0.413709  0.691786  0.110714  1
  Sr  Sr4  1  0.456744  0.231155  0.861174  1
  Sr  Sr5  1  0.497312  0.210669  0.218084  1
  Sr  Sr6  1  0.631796  0.547292  0.610738  1
  Sr  Sr7  1  0.809438  0.909237  0.451890  1
  Sr  Sr8  1  0.879301  0.929433  0.978860  1
  Sr  Sr9  1  0.916296  0.616855  0.173437  1
  Sr  Sr10  1  0.958260  0.275552  0.786750  1
