# generated using pymatgen
data_Sr
_symmetry_space_group_name_H-M   Cm
_cell_length_a   5.74410318
_cell_length_b   10.67070713
_cell_length_c   8.48126622
_cell_angle_alpha   90.00000000
_cell_angle_beta   107.67261804
_cell_angle_gamma   90.00000000
_symmetry_Int_Tables_number   8
_chemical_formula_structural   Sr
_chemical_formula_sum   Sr22
_cell_volume   495.31435862
_cell_formula_units_Z   22
loop_
 _symmetry_equiv_pos_site_id
 _symmetry_equiv_pos_as_xyz
  1  'x, y, z'
  2  'x, -y, z'
  3  'x+1/2, y+1/2, z'
  4  'x+1/2, -y+1/2, z'
loop_
 _atom_site_type_symbol
 _atom_site_label
 _atom_site_symmetry_multiplicity
 _atom_site_fract_x
 _atom_site_fract_y
 _atom_site_fract_z
 _atom_site_occupancy
  Sr  Sr0  4  0.030512  0.292581  0.861559  1
  Sr  Sr1  4  0.229046  0.205038  0.201482  1
  Sr  Sr2  4  0.389165  0.287230  0.533983  1
  Sr  Sr3  2  0.076214  0.500000  0.342469  1
  Sr  Sr4  2  0.200410  0.000000  0.525080  1
  Sr  Sr5  2  0.236069  0.000000  0.920807  1
  Sr  Sr6  2  0.241343  0.500000  0.727319  1
  Sr  Sr7  2  0.362110  0.500000  0.122748  1
