# generated using pymatgen
data_Sr
_symmetry_space_group_name_H-M   P1
_cell_length_a   5.91651659
_cell_length_b   8.38754378
_cell_length_c   8.46033359
_cell_angle_alpha   87.08828159
_cell_angle_beta   69.67154226
_cell_angle_gamma   70.76932041
_symmetry_Int_Tables_number   1
_chemical_formula_structural   Sr
_chemical_formula_sum   Sr17
_cell_volume   370.76579995
_cell_formula_units_Z   17
loop_
 _symmetry_equiv_pos_site_id
 _symmetry_equiv_pos_as_xyz
  1  'x, y, z'
loop_
 _atom_site_type_symbol
 _atom_site_label
 _atom_site_symmetry_multiplicity
 _atom_site_fract_x
 _atom_site_fract_y
 _atom_site_fract_z
 _atom_site_occupancy
  Sr  Sr0  1  0.068301  0.258757  0.842360  1
  Sr  Sr1  1  0.079660  0.809062  0.696774  1
  Sr  Sr2  1  0.116398  0.337541  0.197352  1
  Sr  Sr3  1  0.123006  0.680857  0.291270  1
  Sr  Sr4  1  0.244578  0.085195  0.509890  1
  Sr  Sr5  1  0.250132  0.973614  0.202806  1
  Sr  Sr6  1  0.270444  0.530397  0.912292  1
  Sr  Sr7  1  0.280195  0.428899  0.513307  1
  Sr  Sr8  1  0.355010  0.921005  0.867178  1
  Sr  Sr9  1  0.580809  0.693156  0.406571  1
  Sr  Sr10  1  0.622713  0.167581  0.869364  1
  Sr  Sr11  1  0.652640  0.543927  0.076011  1
  Sr  Sr12  1  0.683863  0.201967  0.201577  1
  Sr  Sr13  1  0.733904  0.976862  0.506066  1
  Sr  Sr14  1  0.743164  0.617350  0.722042  1
  Sr  Sr15  1  0.755589  0.310250  0.544863  1
  Sr  Sr16  1  0.817435  0.859939  0.064424  1
