# generated using pymatgen
data_Sr
_symmetry_space_group_name_H-M   P1
_cell_length_a   8.10015209
_cell_length_b   8.17142849
_cell_length_c   8.27937999
_cell_angle_alpha   104.78642858
_cell_angle_beta   104.18795048
_cell_angle_gamma   118.37390336
_symmetry_Int_Tables_number   1
_chemical_formula_structural   Sr
_chemical_formula_sum   Sr19
_cell_volume   420.75531253
_cell_formula_units_Z   19
loop_
 _symmetry_equiv_pos_site_id
 _symmetry_equiv_pos_as_xyz
  1  'x, y, z'
loop_
 _atom_site_type_symbol
 _atom_site_label
 _atom_site_symmetry_multiplicity
 _atom_site_fract_x
 _atom_site_fract_y
 _atom_site_fract_z
 _atom_site_occupancy
  Sr  Sr0  1  0.104131  0.539227  0.112857  1
  Sr  Sr1  1  0.105546  0.309954  0.764430  1
  Sr  Sr2  1  0.169514  0.982758  0.399158  1
  Sr  Sr3  1  0.176548  0.774500  0.899782  1
  Sr  Sr4  1  0.275896  0.706030  0.506679  1
  Sr  Sr5  1  0.311742  0.100949  0.783633  1
  Sr  Sr6  1  0.325909  0.336947  0.125022  1
  Sr  Sr7  1  0.439430  0.465759  0.509900  1
  Sr  Sr8  1  0.476095  0.094737  0.258022  1
  Sr  Sr9  1  0.495518  0.699610  0.885018  1
  Sr  Sr10  1  0.600188  0.811832  0.270807  1
  Sr  Sr11  1  0.654441  0.087742  0.650152  1
  Sr  Sr12  1  0.690345  0.475616  0.849852  1
  Sr  Sr13  1  0.713060  0.153872  0.032629  1
  Sr  Sr14  1  0.784810  0.585646  0.237118  1
  Sr  Sr15  1  0.839639  0.858576  0.638396  1
  Sr  Sr16  1  0.848819  0.471868  0.543849  1
  Sr  Sr17  1  0.946919  0.944440  0.018141  1
  Sr  Sr18  1  0.989021  0.206115  0.380951  1
