# generated using pymatgen
data_Sr
_symmetry_space_group_name_H-M   P1
_cell_length_a   5.90160962
_cell_length_b   5.90107116
_cell_length_c   8.28356016
_cell_angle_alpha   78.00594283
_cell_angle_beta   71.19035634
_cell_angle_gamma   64.56910105
_symmetry_Int_Tables_number   1
_chemical_formula_structural   Sr
_chemical_formula_sum   Sr11
_cell_volume   245.80252702
_cell_formula_units_Z   11
loop_
 _symmetry_equiv_pos_site_id
 _symmetry_equiv_pos_as_xyz
  1  'x, y, z'
loop_
 _atom_site_type_symbol
 _atom_site_label
 _atom_site_symmetry_multiplicity
 _atom_site_fract_x
 _atom_site_fract_y
 _atom_site_fract_z
 _atom_site_occupancy
  Sr  Sr0  1  0.244576  0.415197  0.794728  1
  Sr  Sr1  1  0.261531  0.880846  0.602857  1
  Sr  Sr2  1  0.313188  0.410760  0.413317  1
  Sr  Sr3  1  0.366546  0.022067  0.198752  1
  Sr  Sr4  1  0.400455  0.579334  0.064122  1
  Sr  Sr5  1  0.604480  0.898440  0.791416  1
  Sr  Sr6  1  0.795607  0.651362  0.358463  1
  Sr  Sr7  1  0.816414  0.384398  0.709543  1
  Sr  Sr8  1  0.816534  0.069528  0.440194  1
  Sr  Sr9  1  0.908821  0.354206  0.100983  1
  Sr  Sr10  1  0.917045  0.936504  0.994200  1
