# generated using pymatgen
data_Sr
_symmetry_space_group_name_H-M   P-1
_cell_length_a   3.84199220
_cell_length_b   5.94998166
_cell_length_c   5.96044850
_cell_angle_alpha   104.83042115
_cell_angle_beta   105.31427774
_cell_angle_gamma   108.49478511
_symmetry_Int_Tables_number   2
_chemical_formula_structural   Sr
_chemical_formula_sum   Sr4
_cell_volume   115.71311864
_cell_formula_units_Z   4
loop_
 _symmetry_equiv_pos_site_id
 _symmetry_equiv_pos_as_xyz
  1  'x, y, z'
  2  '-x, -y, -z'
loop_
 _atom_site_type_symbol
 _atom_site_label
 _atom_site_symmetry_multiplicity
 _atom_site_fract_x
 _atom_site_fract_y
 _atom_site_fract_z
 _atom_site_occupancy
  Sr  Sr0  2  0.292868  0.452751  0.693725  1
  Sr  Sr1  2  0.321890  0.954779  0.203661  1
