# generated using pymatgen
data_Sr
_symmetry_space_group_name_H-M   P1
_cell_length_a   5.75172873
_cell_length_b   8.88606176
_cell_length_c   9.32500315
_cell_angle_alpha   72.91943673
_cell_angle_beta   88.34517794
_cell_angle_gamma   89.57040044
_symmetry_Int_Tables_number   1
_chemical_formula_structural   Sr
_chemical_formula_sum   Sr21
_cell_volume   455.39102144
_cell_formula_units_Z   21
loop_
 _symmetry_equiv_pos_site_id
 _symmetry_equiv_pos_as_xyz
  1  'x, y, z'
loop_
 _atom_site_type_symbol
 _atom_site_label
 _atom_site_symmetry_multiplicity
 _atom_site_fract_x
 _atom_site_fract_y
 _atom_site_fract_z
 _atom_site_occupancy
  Sr  Sr0  1  0.005829  0.906856  0.215028  1
  Sr  Sr1  1  0.052755  0.273643  0.601948  1
  Sr  Sr2  1  0.141255  0.895484  0.504823  1
  Sr  Sr3  1  0.170888  0.193470  0.969696  1
  Sr  Sr4  1  0.217160  0.576921  0.390344  1
  Sr  Sr5  1  0.287320  0.447964  0.087351  1
  Sr  Sr6  1  0.295752  0.981040  0.765210  1
  Sr  Sr7  1  0.336242  0.208923  0.364785  1
  Sr  Sr8  1  0.365582  0.769685  0.064728  1
  Sr  Sr9  1  0.401042  0.650934  0.775709  1
  Sr  Sr10  1  0.469847  0.353825  0.728911  1
  Sr  Sr11  1  0.519708  0.030163  0.182197  1
  Sr  Sr12  1  0.593934  0.761728  0.454779  1
  Sr  Sr13  1  0.648939  0.412283  0.443774  1
  Sr  Sr14  1  0.705900  0.018775  0.573952  1
  Sr  Sr15  1  0.745428  0.095929  0.877208  1
  Sr  Sr16  1  0.772304  0.410652  0.977728  1
  Sr  Sr17  1  0.803413  0.617425  0.183495  1
  Sr  Sr18  1  0.865784  0.223209  0.272459  1
  Sr  Sr19  1  0.868612  0.776697  0.869470  1
  Sr  Sr20  1  0.955762  0.572941  0.667275  1
