# generated using pymatgen
data_Sr
_symmetry_space_group_name_H-M   P1
_cell_length_a   5.63865668
_cell_length_b   5.87659424
_cell_length_c   8.31508829
_cell_angle_alpha   69.96261574
_cell_angle_beta   89.82575592
_cell_angle_gamma   89.34304490
_symmetry_Int_Tables_number   1
_chemical_formula_structural   Sr
_chemical_formula_sum   Sr12
_cell_volume   258.83443564
_cell_formula_units_Z   12
loop_
 _symmetry_equiv_pos_site_id
 _symmetry_equiv_pos_as_xyz
  1  'x, y, z'
loop_
 _atom_site_type_symbol
 _atom_site_label
 _atom_site_symmetry_multiplicity
 _atom_site_fract_x
 _atom_site_fract_y
 _atom_site_fract_z
 _atom_site_occupancy
  Sr  Sr0  1  0.187686  0.364617  0.337909  1
  Sr  Sr1  1  0.200621  0.684225  0.989876  1
  Sr  Sr2  1  0.234799  0.078357  0.119063  1
  Sr  Sr3  1  0.319809  0.378037  0.776193  1
  Sr  Sr4  1  0.329988  0.731485  0.445653  1
  Sr  Sr5  1  0.471174  0.008071  0.658170  1
  Sr  Sr6  1  0.686408  0.276881  0.289333  1
  Sr  Sr7  1  0.707680  0.595584  0.942536  1
  Sr  Sr8  1  0.737194  0.866625  0.185305  1
  Sr  Sr9  1  0.802318  0.558986  0.523471  1
  Sr  Sr10  1  0.849604  0.199672  0.849950  1
  Sr  Sr11  1  0.972212  0.947040  0.609731  1
