# generated using pymatgen
data_Sr
_symmetry_space_group_name_H-M   Cm
_cell_length_a   15.54958000
_cell_length_b   3.51875249
_cell_length_c   8.63500450
_cell_angle_alpha   90.00000000
_cell_angle_beta   95.52831619
_cell_angle_gamma   90.00000000
_symmetry_Int_Tables_number   8
_chemical_formula_structural   Sr
_chemical_formula_sum   Sr18
_cell_volume   470.26776267
_cell_formula_units_Z   18
loop_
 _symmetry_equiv_pos_site_id
 _symmetry_equiv_pos_as_xyz
  1  'x, y, z'
  2  'x, -y, z'
  3  'x+1/2, y+1/2, z'
  4  'x+1/2, -y+1/2, z'
loop_
 _atom_site_type_symbol
 _atom_site_label
 _atom_site_symmetry_multiplicity
 _atom_site_fract_x
 _atom_site_fract_y
 _atom_site_fract_z
 _atom_site_occupancy
  Sr  Sr0  2  0.019718  0.500000  0.585097  1
  Sr  Sr1  2  0.041006  0.500000  0.210862  1
  Sr  Sr2  2  0.078201  0.000000  0.914206  1
  Sr  Sr3  2  0.173647  0.000000  0.446897  1
  Sr  Sr4  2  0.203849  0.500000  0.762134  1
  Sr  Sr5  2  0.241039  0.000000  0.128702  1
  Sr  Sr6  2  0.349350  0.500000  0.544528  1
  Sr  Sr7  2  0.383160  0.500000  0.248788  1
  Sr  Sr8  2  0.387431  0.000000  0.882203  1
