# generated using pymatgen
data_Sr
_symmetry_space_group_name_H-M   P1
_cell_length_a   3.52568556
_cell_length_b   7.69129073
_cell_length_c   7.85564706
_cell_angle_alpha   66.73459279
_cell_angle_beta   78.02516332
_cell_angle_gamma   89.77527080
_symmetry_Int_Tables_number   1
_chemical_formula_structural   Sr
_chemical_formula_sum   Sr7
_cell_volume   190.71858712
_cell_formula_units_Z   7
loop_
 _symmetry_equiv_pos_site_id
 _symmetry_equiv_pos_as_xyz
  1  'x, y, z'
loop_
 _atom_site_type_symbol
 _atom_site_label
 _atom_site_symmetry_multiplicity
 _atom_site_fract_x
 _atom_site_fract_y
 _atom_site_fract_z
 _atom_site_occupancy
  Sr  Sr0  1  0.036751  0.816868  0.476933  1
  Sr  Sr1  1  0.348653  0.698613  0.869864  1
  Sr  Sr2  1  0.405894  0.368179  0.752195  1
  Sr  Sr3  1  0.615026  0.572293  0.329458  1
  Sr  Sr4  1  0.734945  0.294911  0.125414  1
  Sr  Sr5  1  0.775954  0.944196  0.017042  1
  Sr  Sr6  1  0.971744  0.153816  0.581474  1
