# generated using pymatgen
data_Sr
_symmetry_space_group_name_H-M   P1
_cell_length_a   3.63261280
_cell_length_b   6.13782018
_cell_length_c   9.17141214
_cell_angle_alpha   99.99540890
_cell_angle_beta   91.20358621
_cell_angle_gamma   107.11089402
_symmetry_Int_Tables_number   1
_chemical_formula_structural   Sr
_chemical_formula_sum   Sr7
_cell_volume   191.90599300
_cell_formula_units_Z   7
loop_
 _symmetry_equiv_pos_site_id
 _symmetry_equiv_pos_as_xyz
  1  'x, y, z'
loop_
 _atom_site_type_symbol
 _atom_site_label
 _atom_site_symmetry_multiplicity
 _atom_site_fract_x
 _atom_site_fract_y
 _atom_site_fract_z
 _atom_site_occupancy
  Sr  Sr0  1  0.192394  0.497793  0.088495  1
  Sr  Sr1  1  0.225872  0.630074  0.595521  1
  Sr  Sr2  1  0.473152  0.049251  0.056609  1
  Sr  Sr3  1  0.576463  0.266802  0.374720  1
  Sr  Sr4  1  0.785851  0.714224  0.851981  1
  Sr  Sr5  1  0.860036  0.825768  0.348434  1
  Sr  Sr6  1  0.997559  0.195921  0.741104  1
