# generated using pymatgen
data_Sr
_symmetry_space_group_name_H-M   P1
_cell_length_a   5.81991304
_cell_length_b   6.00608653
_cell_length_c   8.28641386
_cell_angle_alpha   69.48982015
_cell_angle_beta   71.47162742
_cell_angle_gamma   89.87248575
_symmetry_Int_Tables_number   1
_chemical_formula_structural   Sr
_chemical_formula_sum   Sr11
_cell_volume   255.27887535
_cell_formula_units_Z   11
loop_
 _symmetry_equiv_pos_site_id
 _symmetry_equiv_pos_as_xyz
  1  'x, y, z'
loop_
 _atom_site_type_symbol
 _atom_site_label
 _atom_site_symmetry_multiplicity
 _atom_site_fract_x
 _atom_site_fract_y
 _atom_site_fract_z
 _atom_site_occupancy
  Sr  Sr0  1  0.021802  0.864163  0.937937  1
  Sr  Sr1  1  0.058905  0.778326  0.277590  1
  Sr  Sr2  1  0.197662  0.215110  0.329156  1
  Sr  Sr3  1  0.250241  0.317090  0.722256  1
  Sr  Sr4  1  0.436572  0.542159  0.961881  1
  Sr  Sr5  1  0.457290  0.878277  0.570730  1
  Sr  Sr6  1  0.541176  0.650315  0.327025  1
  Sr  Sr7  1  0.570056  0.025716  0.990632  1
  Sr  Sr8  1  0.766257  0.236141  0.601684  1
  Sr  Sr9  1  0.817160  0.307824  0.142795  1
  Sr  Sr10  1  0.898107  0.681805  0.663893  1
