# generated using pymatgen
data_Sr
_symmetry_space_group_name_H-M   P1
_cell_length_a   5.90204509
_cell_length_b   6.03090867
_cell_length_c   9.08897207
_cell_angle_alpha   88.56821180
_cell_angle_beta   89.00351780
_cell_angle_gamma   64.46043395
_symmetry_Int_Tables_number   1
_chemical_formula_structural   Sr
_chemical_formula_sum   Sr13
_cell_volume   291.80841376
_cell_formula_units_Z   13
loop_
 _symmetry_equiv_pos_site_id
 _symmetry_equiv_pos_as_xyz
  1  'x, y, z'
loop_
 _atom_site_type_symbol
 _atom_site_label
 _atom_site_symmetry_multiplicity
 _atom_site_fract_x
 _atom_site_fract_y
 _atom_site_fract_z
 _atom_site_occupancy
  Sr  Sr0  1  0.121579  0.063639  0.833263  1
  Sr  Sr1  1  0.204152  0.380996  0.074801  1
  Sr  Sr2  1  0.297228  0.471495  0.374083  1
  Sr  Sr3  1  0.340533  0.865875  0.131624  1
  Sr  Sr4  1  0.373565  0.602499  0.677530  1
  Sr  Sr5  1  0.440107  0.953725  0.429532  1
  Sr  Sr6  1  0.534643  0.103201  0.715404  1
  Sr  Sr7  1  0.643220  0.402954  0.960372  1
  Sr  Sr8  1  0.800121  0.419108  0.286649  1
  Sr  Sr9  1  0.805078  0.958074  0.182528  1
  Sr  Sr10  1  0.863695  0.733919  0.891912  1
  Sr  Sr11  1  0.912649  0.490364  0.610716  1
  Sr  Sr12  1  0.938151  0.021260  0.505274  1
