# generated using pymatgen
data_Sr
_symmetry_space_group_name_H-M   P-1
_cell_length_a   3.62320444
_cell_length_b   5.66444037
_cell_length_c   5.72093708
_cell_angle_alpha   109.35055023
_cell_angle_beta   98.45380628
_cell_angle_gamma   103.82229771
_symmetry_Int_Tables_number   2
_chemical_formula_structural   Sr
_chemical_formula_sum   Sr4
_cell_volume   104.24299984
_cell_formula_units_Z   4
loop_
 _symmetry_equiv_pos_site_id
 _symmetry_equiv_pos_as_xyz
  1  'x, y, z'
  2  '-x, -y, -z'
loop_
 _atom_site_type_symbol
 _atom_site_label
 _atom_site_symmetry_multiplicity
 _atom_site_fract_x
 _atom_site_fract_y
 _atom_site_fract_z
 _atom_site_occupancy
  Sr  Sr0  2  0.116776  0.302541  0.819246  1
  Sr  Sr1  2  0.313170  0.798379  0.690012  1
