# generated using pymatgen
data_Sr
_symmetry_space_group_name_H-M   P1
_cell_length_a   5.61106828
_cell_length_b   6.20815757
_cell_length_c   6.32212394
_cell_angle_alpha   95.11977750
_cell_angle_beta   91.50245365
_cell_angle_gamma   112.86464751
_symmetry_Int_Tables_number   1
_chemical_formula_structural   Sr
_chemical_formula_sum   Sr7
_cell_volume   201.66808716
_cell_formula_units_Z   7
loop_
 _symmetry_equiv_pos_site_id
 _symmetry_equiv_pos_as_xyz
  1  'x, y, z'
loop_
 _atom_site_type_symbol
 _atom_site_label
 _atom_site_symmetry_multiplicity
 _atom_site_fract_x
 _atom_site_fract_y
 _atom_site_fract_z
 _atom_site_occupancy
  Sr  Sr0  1  0.100153  0.696899  0.910120  1
  Sr  Sr1  1  0.200861  0.913065  0.404372  1
  Sr  Sr2  1  0.348025  0.209819  0.862675  1
  Sr  Sr3  1  0.569009  0.602591  0.506014  1
  Sr  Sr4  1  0.637282  0.805293  0.020700  1
  Sr  Sr5  1  0.850230  0.210596  0.679873  1
  Sr  Sr6  1  0.926293  0.313332  0.257594  1
