# generated using pymatgen
data_Sr
_symmetry_space_group_name_H-M   P1
_cell_length_a   5.64364769
_cell_length_b   6.53830527
_cell_length_c   9.17436718
_cell_angle_alpha   93.19733737
_cell_angle_beta   96.21790383
_cell_angle_gamma   99.51934094
_symmetry_Int_Tables_number   1
_chemical_formula_structural   Sr
_chemical_formula_sum   Sr15
_cell_volume   330.96861829
_cell_formula_units_Z   15
loop_
 _symmetry_equiv_pos_site_id
 _symmetry_equiv_pos_as_xyz
  1  'x, y, z'
loop_
 _atom_site_type_symbol
 _atom_site_label
 _atom_site_symmetry_multiplicity
 _atom_site_fract_x
 _atom_site_fract_y
 _atom_site_fract_z
 _atom_site_occupancy
  Sr  Sr0  1  0.013550  0.385018  0.901929  1
  Sr  Sr1  1  0.056688  0.750261  0.747468  1
  Sr  Sr2  1  0.123726  0.692784  0.131328  1
  Sr  Sr3  1  0.133822  0.163795  0.621924  1
  Sr  Sr4  1  0.276147  0.343416  0.348848  1
  Sr  Sr5  1  0.279277  0.080960  0.015100  1
  Sr  Sr6  1  0.446120  0.652789  0.581362  1
  Sr  Sr7  1  0.505156  0.956439  0.355052  1
  Sr  Sr8  1  0.519704  0.443639  0.845818  1
  Sr  Sr9  1  0.597924  0.561854  0.160081  1
  Sr  Sr10  1  0.617073  0.084483  0.673709  1
  Sr  Sr11  1  0.664923  0.874363  0.936402  1
  Sr  Sr12  1  0.818300  0.429259  0.490309  1
  Sr  Sr13  1  0.827116  0.181215  0.173982  1
  Sr  Sr14  1  0.963874  0.830987  0.399982  1
