# generated using pymatgen
data_Sr
_symmetry_space_group_name_H-M   P1
_cell_length_a   3.88812017
_cell_length_b   4.48172928
_cell_length_c   9.47462022
_cell_angle_alpha   83.03143565
_cell_angle_beta   83.85365141
_cell_angle_gamma   87.64325646
_symmetry_Int_Tables_number   1
_chemical_formula_structural   Sr
_chemical_formula_sum   Sr6
_cell_volume   162.87214955
_cell_formula_units_Z   6
loop_
 _symmetry_equiv_pos_site_id
 _symmetry_equiv_pos_as_xyz
  1  'x, y, z'
loop_
 _atom_site_type_symbol
 _atom_site_label
 _atom_site_symmetry_multiplicity
 _atom_site_fract_x
 _atom_site_fract_y
 _atom_site_fract_z
 _atom_site_occupancy
  Sr  Sr0  1  0.061170  0.126571  0.703564  1
  Sr  Sr1  1  0.155440  0.718779  0.279705  1
  Sr  Sr2  1  0.372320  0.249169  0.031401  1
  Sr  Sr3  1  0.524077  0.620155  0.612944  1
  Sr  Sr4  1  0.673046  0.187538  0.374728  1
  Sr  Sr5  1  0.811685  0.740926  0.945237  1
