# generated using pymatgen
data_Sr
_symmetry_space_group_name_H-M   P-1
_cell_length_a   4.51965987
_cell_length_b   6.03812173
_cell_length_c   6.10214352
_cell_angle_alpha   105.56549330
_cell_angle_beta   108.54636810
_cell_angle_gamma   110.91484126
_symmetry_Int_Tables_number   2
_chemical_formula_structural   Sr
_chemical_formula_sum   Sr5
_cell_volume   133.06202023
_cell_formula_units_Z   5
loop_
 _symmetry_equiv_pos_site_id
 _symmetry_equiv_pos_as_xyz
  1  'x, y, z'
  2  '-x, -y, -z'
loop_
 _atom_site_type_symbol
 _atom_site_label
 _atom_site_symmetry_multiplicity
 _atom_site_fract_x
 _atom_site_fract_y
 _atom_site_fract_z
 _atom_site_occupancy
  Sr  Sr0  2  0.110176  0.861598  0.317208  1
  Sr  Sr1  2  0.377727  0.464338  0.241146  1
  Sr  Sr2  1  0.500000  0.000000  0.000000  1
