# generated using pymatgen
data_Sr
_symmetry_space_group_name_H-M   P1
_cell_length_a   5.93089855
_cell_length_b   6.37882487
_cell_length_c   9.32857929
_cell_angle_alpha   91.80991756
_cell_angle_beta   98.35249576
_cell_angle_gamma   92.67125964
_symmetry_Int_Tables_number   1
_chemical_formula_structural   Sr
_chemical_formula_sum   Sr15
_cell_volume   348.53478152
_cell_formula_units_Z   15
loop_
 _symmetry_equiv_pos_site_id
 _symmetry_equiv_pos_as_xyz
  1  'x, y, z'
loop_
 _atom_site_type_symbol
 _atom_site_label
 _atom_site_symmetry_multiplicity
 _atom_site_fract_x
 _atom_site_fract_y
 _atom_site_fract_z
 _atom_site_occupancy
  Sr  Sr0  1  0.033800  0.459196  0.997026  1
  Sr  Sr1  1  0.045527  0.330443  0.573716  1
  Sr  Sr2  1  0.180057  0.384656  0.302940  1
  Sr  Sr3  1  0.190136  0.694425  0.752811  1
  Sr  Sr4  1  0.247345  0.850216  0.413435  1
  Sr  Sr5  1  0.383141  0.855091  0.080702  1
  Sr  Sr6  1  0.430491  0.113269  0.718647  1
  Sr  Sr7  1  0.480131  0.293551  0.000569  1
  Sr  Sr8  1  0.579491  0.480303  0.577591  1
  Sr  Sr9  1  0.621132  0.180832  0.332195  1
  Sr  Sr10  1  0.659554  0.676407  0.860539  1
  Sr  Sr11  1  0.718204  0.599489  0.247146  1
  Sr  Sr12  1  0.826749  0.846257  0.515198  1
  Sr  Sr13  1  0.917451  0.081100  0.822658  1
  Sr  Sr14  1  0.943609  0.989934  0.141451  1
