# generated using pymatgen
data_Sr
_symmetry_space_group_name_H-M   P1
_cell_length_a   6.07287914
_cell_length_b   6.16116776
_cell_length_c   7.84958867
_cell_angle_alpha   71.11329375
_cell_angle_beta   76.74520384
_cell_angle_gamma   87.82813184
_symmetry_Int_Tables_number   1
_chemical_formula_structural   Sr
_chemical_formula_sum   Sr11
_cell_volume   270.27439038
_cell_formula_units_Z   11
loop_
 _symmetry_equiv_pos_site_id
 _symmetry_equiv_pos_as_xyz
  1  'x, y, z'
loop_
 _atom_site_type_symbol
 _atom_site_label
 _atom_site_symmetry_multiplicity
 _atom_site_fract_x
 _atom_site_fract_y
 _atom_site_fract_z
 _atom_site_occupancy
  Sr  Sr0  1  0.033330  0.037012  0.318629  1
  Sr  Sr1  1  0.087470  0.050609  0.926572  1
  Sr  Sr2  1  0.229488  0.567470  0.078093  1
  Sr  Sr3  1  0.251432  0.446292  0.550061  1
  Sr  Sr4  1  0.358879  0.802057  0.666062  1
  Sr  Sr5  1  0.510876  0.183442  0.321069  1
  Sr  Sr6  1  0.522726  0.238714  0.897495  1
  Sr  Sr7  1  0.606997  0.768033  0.168787  1
  Sr  Sr8  1  0.779029  0.955811  0.690094  1
  Sr  Sr9  1  0.811380  0.506743  0.473933  1
  Sr  Sr10  1  0.860171  0.508714  0.922825  1
