# generated using pymatgen
data_Sr
_symmetry_space_group_name_H-M   P1
_cell_length_a   5.94608299
_cell_length_b   6.19438263
_cell_length_c   6.37050472
_cell_angle_alpha   93.93430410
_cell_angle_beta   116.23170051
_cell_angle_gamma   101.73375924
_symmetry_Int_Tables_number   1
_chemical_formula_structural   Sr
_chemical_formula_sum   Sr8
_cell_volume   202.69381780
_cell_formula_units_Z   8
loop_
 _symmetry_equiv_pos_site_id
 _symmetry_equiv_pos_as_xyz
  1  'x, y, z'
loop_
 _atom_site_type_symbol
 _atom_site_label
 _atom_site_symmetry_multiplicity
 _atom_site_fract_x
 _atom_site_fract_y
 _atom_site_fract_z
 _atom_site_occupancy
  Sr  Sr0  1  0.153770  0.210398  0.661077  1
  Sr  Sr1  1  0.203498  0.690912  0.806691  1
  Sr  Sr2  1  0.294433  0.892129  0.253426  1
  Sr  Sr3  1  0.316534  0.368434  0.230939  1
  Sr  Sr4  1  0.671121  0.561002  0.760985  1
  Sr  Sr5  1  0.714151  0.021061  0.729158  1
  Sr  Sr6  1  0.758444  0.256006  0.147064  1
  Sr  Sr7  1  0.852023  0.745895  0.316782  1
