# generated using pymatgen
data_Sr
_symmetry_space_group_name_H-M   P1
_cell_length_a   3.06040044
_cell_length_b   11.03087748
_cell_length_c   11.08393772
_cell_angle_alpha   86.32666209
_cell_angle_beta   82.17707629
_cell_angle_gamma   82.22955457
_symmetry_Int_Tables_number   1
_chemical_formula_structural   Sr
_chemical_formula_sum   Sr16
_cell_volume   366.89770117
_cell_formula_units_Z   16
loop_
 _symmetry_equiv_pos_site_id
 _symmetry_equiv_pos_as_xyz
  1  'x, y, z'
loop_
 _atom_site_type_symbol
 _atom_site_label
 _atom_site_symmetry_multiplicity
 _atom_site_fract_x
 _atom_site_fract_y
 _atom_site_fract_z
 _atom_site_occupancy
  Sr  Sr0  1  0.081592  0.666364  0.385364  1
  Sr  Sr1  1  0.123211  0.838912  0.121035  1
  Sr  Sr2  1  0.203761  0.116677  0.662730  1
  Sr  Sr3  1  0.208592  0.410891  0.329044  1
  Sr  Sr4  1  0.353230  0.629589  0.899047  1
  Sr  Sr5  1  0.443998  0.922781  0.364515  1
  Sr  Sr6  1  0.487906  0.628317  0.635686  1
  Sr  Sr7  1  0.553769  0.133425  0.902712  1
  Sr  Sr8  1  0.650576  0.362934  0.571018  1
  Sr  Sr9  1  0.747681  0.879342  0.868220  1
  Sr  Sr10  1  0.775146  0.589256  0.135579  1
  Sr  Sr11  1  0.826572  0.163239  0.393917  1
  Sr  Sr12  1  0.845336  0.345020  0.078449  1
  Sr  Sr13  1  0.849113  0.881296  0.605295  1
  Sr  Sr14  1  0.991113  0.095854  0.145495  1
  Sr  Sr15  1  0.994497  0.391263  0.822232  1
