# generated using pymatgen
data_Sr
_symmetry_space_group_name_H-M   P1
_cell_length_a   5.93990838
_cell_length_b   5.95067088
_cell_length_c   6.13902671
_cell_angle_alpha   85.53140407
_cell_angle_beta   87.05687494
_cell_angle_gamma   77.23945454
_symmetry_Int_Tables_number   1
_chemical_formula_structural   Sr
_chemical_formula_sum   Sr8
_cell_volume   210.85999675
_cell_formula_units_Z   8
loop_
 _symmetry_equiv_pos_site_id
 _symmetry_equiv_pos_as_xyz
  1  'x, y, z'
loop_
 _atom_site_type_symbol
 _atom_site_label
 _atom_site_symmetry_multiplicity
 _atom_site_fract_x
 _atom_site_fract_y
 _atom_site_fract_z
 _atom_site_occupancy
  Sr  Sr0  1  0.316343  0.771415  0.709716  1
  Sr  Sr1  1  0.342371  0.307534  0.392263  1
  Sr  Sr2  1  0.356418  0.216735  0.878651  1
  Sr  Sr3  1  0.442440  0.763962  0.196200  1
  Sr  Sr4  1  0.809105  0.566629  0.574128  1
  Sr  Sr5  1  0.842541  0.142653  0.925233  1
  Sr  Sr6  1  0.881538  0.052256  0.395324  1
  Sr  Sr7  1  0.925914  0.627737  0.043897  1
