# generated using pymatgen
data_Sr
_symmetry_space_group_name_H-M   P1
_cell_length_a   6.17238967
_cell_length_b   7.53406818
_cell_length_c   7.74236744
_cell_angle_alpha   85.93266108
_cell_angle_beta   87.10055025
_cell_angle_gamma   77.59560885
_symmetry_Int_Tables_number   1
_chemical_formula_structural   Sr
_chemical_formula_sum   Sr19
_cell_volume   350.52333842
_cell_formula_units_Z   19
loop_
 _symmetry_equiv_pos_site_id
 _symmetry_equiv_pos_as_xyz
  1  'x, y, z'
loop_
 _atom_site_type_symbol
 _atom_site_label
 _atom_site_symmetry_multiplicity
 _atom_site_fract_x
 _atom_site_fract_y
 _atom_site_fract_z
 _atom_site_occupancy
  Sr  Sr0  1  0.000046  0.933215  0.175876  1
  Sr  Sr1  1  0.072286  0.526648  0.751296  1
  Sr  Sr2  1  0.149843  0.269465  0.104101  1
  Sr  Sr3  1  0.155866  0.813001  0.532204  1
  Sr  Sr4  1  0.215313  0.947606  0.848793  1
  Sr  Sr5  1  0.275126  0.127337  0.425592  1
  Sr  Sr6  1  0.319767  0.493858  0.335386  1
  Sr  Sr7  1  0.358690  0.586043  0.993499  1
  Sr  Sr8  1  0.418892  0.228146  0.711846  1
  Sr  Sr9  1  0.457150  0.806095  0.250682  1
  Sr  Sr10  1  0.528060  0.584142  0.647157  1
  Sr  Sr11  1  0.547051  0.080990  0.041285  1
  Sr  Sr12  1  0.693356  0.238175  0.323390  1
  Sr  Sr13  1  0.713208  0.816218  0.825086  1
  Sr  Sr14  1  0.715119  0.887858  0.487725  1
  Sr  Sr15  1  0.749356  0.350921  0.953722  1
  Sr  Sr16  1  0.849801  0.625956  0.136438  1
  Sr  Sr17  1  0.874887  0.169451  0.647047  1
  Sr  Sr18  1  0.901856  0.480181  0.453234  1
