# generated using pymatgen
data_Sr
_symmetry_space_group_name_H-M   Pm
_cell_length_a   8.74559994
_cell_length_b   3.11715469
_cell_length_c   9.06039555
_cell_angle_alpha   90.00000000
_cell_angle_beta   118.61609224
_cell_angle_gamma   90.00000000
_symmetry_Int_Tables_number   6
_chemical_formula_structural   Sr
_chemical_formula_sum   Sr9
_cell_volume   216.82766282
_cell_formula_units_Z   9
loop_
 _symmetry_equiv_pos_site_id
 _symmetry_equiv_pos_as_xyz
  1  'x, y, z'
  2  'x, -y, z'
loop_
 _atom_site_type_symbol
 _atom_site_label
 _atom_site_symmetry_multiplicity
 _atom_site_fract_x
 _atom_site_fract_y
 _atom_site_fract_z
 _atom_site_occupancy
  Sr  Sr0  1  0.191002  0.500000  0.110024  1
  Sr  Sr1  1  0.224785  0.000000  0.746186  1
  Sr  Sr2  1  0.244088  0.500000  0.442301  1
  Sr  Sr3  1  0.490598  0.000000  0.106050  1
  Sr  Sr4  1  0.554154  0.000000  0.767457  1
  Sr  Sr5  1  0.610365  0.000000  0.468454  1
  Sr  Sr6  1  0.844633  0.500000  0.050168  1
  Sr  Sr7  1  0.887510  0.000000  0.365181  1
  Sr  Sr8  1  0.924174  0.500000  0.758591  1
