# generated using pymatgen
data_Sr
_symmetry_space_group_name_H-M   P1
_cell_length_a   5.71830646
_cell_length_b   5.75463834
_cell_length_c   5.94197446
_cell_angle_alpha   101.38836279
_cell_angle_beta   111.63779154
_cell_angle_gamma   113.99881430
_symmetry_Int_Tables_number   1
_chemical_formula_structural   Sr
_chemical_formula_sum   Sr6
_cell_volume   151.50796688
_cell_formula_units_Z   6
loop_
 _symmetry_equiv_pos_site_id
 _symmetry_equiv_pos_as_xyz
  1  'x, y, z'
loop_
 _atom_site_type_symbol
 _atom_site_label
 _atom_site_symmetry_multiplicity
 _atom_site_fract_x
 _atom_site_fract_y
 _atom_site_fract_z
 _atom_site_occupancy
  Sr  Sr0  1  0.174440  0.697626  0.222080  1
  Sr  Sr1  1  0.368504  0.028551  0.864715  1
  Sr  Sr2  1  0.447813  0.503951  0.759197  1
  Sr  Sr3  1  0.688717  0.628053  0.391040  1
  Sr  Sr4  1  0.807048  0.240877  0.555952  1
  Sr  Sr5  1  0.944484  0.079208  0.062949  1
