# generated using pymatgen
data_Sr
_symmetry_space_group_name_H-M   P1
_cell_length_a   6.08687428
_cell_length_b   8.30057098
_cell_length_c   8.43933614
_cell_angle_alpha   72.11018033
_cell_angle_beta   81.99404294
_cell_angle_gamma   73.29457631
_symmetry_Int_Tables_number   1
_chemical_formula_structural   Sr
_chemical_formula_sum   Sr17
_cell_volume   388.04301052
_cell_formula_units_Z   17
loop_
 _symmetry_equiv_pos_site_id
 _symmetry_equiv_pos_as_xyz
  1  'x, y, z'
loop_
 _atom_site_type_symbol
 _atom_site_label
 _atom_site_symmetry_multiplicity
 _atom_site_fract_x
 _atom_site_fract_y
 _atom_site_fract_z
 _atom_site_occupancy
  Sr  Sr0  1  0.013251  0.975229  0.884367  1
  Sr  Sr1  1  0.140001  0.363481  0.616630  1
  Sr  Sr2  1  0.162580  0.885417  0.472003  1
  Sr  Sr3  1  0.271634  0.637798  0.817129  1
  Sr  Sr4  1  0.308498  0.832736  0.155525  1
  Sr  Sr5  1  0.327237  0.238473  0.945019  1
  Sr  Sr6  1  0.419793  0.484460  0.164683  1
  Sr  Sr7  1  0.419991  0.147864  0.398419  1
  Sr  Sr8  1  0.476091  0.543328  0.497105  1
  Sr  Sr9  1  0.495707  0.951844  0.769369  1
  Sr  Sr10  1  0.707379  0.940336  0.171053  1
  Sr  Sr11  1  0.747928  0.341171  0.857882  1
  Sr  Sr12  1  0.781552  0.740395  0.544436  1
  Sr  Sr13  1  0.784524  0.184821  0.564843  1
  Sr  Sr14  1  0.811000  0.643251  0.930785  1
  Sr  Sr15  1  0.935160  0.569859  0.270733  1
  Sr  Sr16  1  0.936641  0.233271  0.196814  1
