# generated using pymatgen
data_Sr
_symmetry_space_group_name_H-M   P1
_cell_length_a   6.23387323
_cell_length_b   7.67082759
_cell_length_c   7.78803173
_cell_angle_alpha   69.22507864
_cell_angle_beta   79.34383479
_cell_angle_gamma   73.97567165
_symmetry_Int_Tables_number   1
_chemical_formula_structural   Sr
_chemical_formula_sum   Sr15
_cell_volume   333.09990069
_cell_formula_units_Z   15
loop_
 _symmetry_equiv_pos_site_id
 _symmetry_equiv_pos_as_xyz
  1  'x, y, z'
loop_
 _atom_site_type_symbol
 _atom_site_label
 _atom_site_symmetry_multiplicity
 _atom_site_fract_x
 _atom_site_fract_y
 _atom_site_fract_z
 _atom_site_occupancy
  Sr  Sr0  1  0.020764  0.555276  0.339642  1
  Sr  Sr1  1  0.073219  0.834404  0.958547  1
  Sr  Sr2  1  0.093031  0.371747  0.745127  1
  Sr  Sr3  1  0.117601  0.909938  0.526105  1
  Sr  Sr4  1  0.143738  0.149475  0.126168  1
  Sr  Sr5  1  0.353141  0.204781  0.434621  1
  Sr  Sr6  1  0.388783  0.466932  0.997968  1
  Sr  Sr7  1  0.439827  0.558341  0.623357  1
  Sr  Sr8  1  0.444770  0.721051  0.237018  1
  Sr  Sr9  1  0.468173  0.979077  0.808481  1
  Sr  Sr10  1  0.677015  0.048004  0.107031  1
  Sr  Sr11  1  0.722306  0.826353  0.498830  1
  Sr  Sr12  1  0.753690  0.337801  0.287893  1
  Sr  Sr13  1  0.768199  0.228085  0.686499  1
  Sr  Sr14  1  0.801645  0.621449  0.908996  1
