# generated using pymatgen
data_Sr
_symmetry_space_group_name_H-M   P1
_cell_length_a   5.84847809
_cell_length_b   6.24310686
_cell_length_c   8.89966365
_cell_angle_alpha   73.55248067
_cell_angle_beta   87.60261430
_cell_angle_gamma   88.62011301
_symmetry_Int_Tables_number   1
_chemical_formula_structural   Sr
_chemical_formula_sum   Sr14
_cell_volume   311.35519947
_cell_formula_units_Z   14
loop_
 _symmetry_equiv_pos_site_id
 _symmetry_equiv_pos_as_xyz
  1  'x, y, z'
loop_
 _atom_site_type_symbol
 _atom_site_label
 _atom_site_symmetry_multiplicity
 _atom_site_fract_x
 _atom_site_fract_y
 _atom_site_fract_z
 _atom_site_occupancy
  Sr  Sr0  1  0.040121  0.159355  0.826958  1
  Sr  Sr1  1  0.057872  0.538825  0.421911  1
  Sr  Sr2  1  0.205083  0.361117  0.113561  1
  Sr  Sr3  1  0.221326  0.600656  0.706463  1
  Sr  Sr4  1  0.324866  0.088139  0.565971  1
  Sr  Sr5  1  0.369820  0.793835  0.933309  1
  Sr  Sr6  1  0.401727  0.907475  0.301310  1
  Sr  Sr7  1  0.547353  0.479595  0.286572  1
  Sr  Sr8  1  0.582221  0.185765  0.956871  1
  Sr  Sr9  1  0.636509  0.425492  0.620732  1
  Sr  Sr10  1  0.774070  0.863347  0.664410  1
  Sr  Sr11  1  0.799008  0.563928  0.976850  1
  Sr  Sr12  1  0.868364  0.116417  0.353865  1
  Sr  Sr13  1  0.901986  0.857789  0.147193  1
