# generated using pymatgen
data_Sr
_symmetry_space_group_name_H-M   P1
_cell_length_a   5.27141971
_cell_length_b   6.03054724
_cell_length_c   7.98969057
_cell_angle_alpha   111.93366634
_cell_angle_beta   90.59412192
_cell_angle_gamma   115.08261209
_symmetry_Int_Tables_number   1
_chemical_formula_structural   Sr
_chemical_formula_sum   Sr9
_cell_volume   209.03892097
_cell_formula_units_Z   9
loop_
 _symmetry_equiv_pos_site_id
 _symmetry_equiv_pos_as_xyz
  1  'x, y, z'
loop_
 _atom_site_type_symbol
 _atom_site_label
 _atom_site_symmetry_multiplicity
 _atom_site_fract_x
 _atom_site_fract_y
 _atom_site_fract_z
 _atom_site_occupancy
  Sr  Sr0  1  0.070921  0.212861  0.342292  1
  Sr  Sr1  1  0.161662  0.431872  0.852015  1
  Sr  Sr2  1  0.350226  0.745757  0.233004  1
  Sr  Sr3  1  0.368452  0.766552  0.644354  1
  Sr  Sr4  1  0.614920  0.318239  0.751193  1
  Sr  Sr5  1  0.617227  0.323843  0.101361  1
  Sr  Sr6  1  0.626890  0.310889  0.442049  1
  Sr  Sr7  1  0.919187  0.891809  0.969373  1
  Sr  Sr8  1  0.930417  0.897233  0.548353  1
