# generated using pymatgen
data_Sr
_symmetry_space_group_name_H-M   P1
_cell_length_a   6.09858602
_cell_length_b   7.74099011
_cell_length_c   9.82830536
_cell_angle_alpha   75.38221204
_cell_angle_beta   74.24657641
_cell_angle_gamma   74.62486209
_symmetry_Int_Tables_number   1
_chemical_formula_structural   Sr
_chemical_formula_sum   Sr19
_cell_volume   422.36273993
_cell_formula_units_Z   19
loop_
 _symmetry_equiv_pos_site_id
 _symmetry_equiv_pos_as_xyz
  1  'x, y, z'
loop_
 _atom_site_type_symbol
 _atom_site_label
 _atom_site_symmetry_multiplicity
 _atom_site_fract_x
 _atom_site_fract_y
 _atom_site_fract_z
 _atom_site_occupancy
  Sr  Sr0  1  0.056279  0.119285  0.840229  1
  Sr  Sr1  1  0.073797  0.466096  0.964118  1
  Sr  Sr2  1  0.100465  0.169497  0.524096  1
  Sr  Sr3  1  0.118949  0.193708  0.217750  1
  Sr  Sr4  1  0.203236  0.537390  0.290236  1
  Sr  Sr5  1  0.216612  0.511753  0.631671  1
  Sr  Sr6  1  0.347080  0.672764  0.994760  1
  Sr  Sr7  1  0.376945  0.838939  0.364308  1
  Sr  Sr8  1  0.388815  0.821520  0.706302  1
  Sr  Sr9  1  0.463495  0.089080  0.956600  1
  Sr  Sr10  1  0.576126  0.160540  0.633063  1
  Sr  Sr11  1  0.593058  0.178334  0.287537  1
  Sr  Sr12  1  0.669214  0.344297  0.002551  1
  Sr  Sr13  1  0.683513  0.728448  0.106805  1
  Sr  Sr14  1  0.693943  0.464571  0.709764  1
  Sr  Sr15  1  0.719294  0.470904  0.378985  1
  Sr  Sr16  1  0.845130  0.820012  0.472443  1
  Sr  Sr17  1  0.870163  0.822491  0.791870  1
  Sr  Sr18  1  0.970908  0.919867  0.132076  1
