# generated using pymatgen
data_Sr
_symmetry_space_group_name_H-M   P-1
_cell_length_a   4.46177176
_cell_length_b   5.99288538
_cell_length_c   6.08014305
_cell_angle_alpha   105.34328891
_cell_angle_beta   108.40255825
_cell_angle_gamma   110.82394726
_symmetry_Int_Tables_number   2
_chemical_formula_structural   Sr
_chemical_formula_sum   Sr5
_cell_volume   130.52302631
_cell_formula_units_Z   5
loop_
 _symmetry_equiv_pos_site_id
 _symmetry_equiv_pos_as_xyz
  1  'x, y, z'
  2  '-x, -y, -z'
loop_
 _atom_site_type_symbol
 _atom_site_label
 _atom_site_symmetry_multiplicity
 _atom_site_fract_x
 _atom_site_fract_y
 _atom_site_fract_z
 _atom_site_occupancy
  Sr  Sr0  2  0.106660  0.855642  0.302838  1
  Sr  Sr1  2  0.365880  0.470338  0.234998  1
  Sr  Sr2  1  0.500000  0.000000  0.000000  1
