# generated using pymatgen
data_Sr
_symmetry_space_group_name_H-M   P1
_cell_length_a   5.96152373
_cell_length_b   6.07359022
_cell_length_c   6.22084478
_cell_angle_alpha   72.08097902
_cell_angle_beta   68.62729958
_cell_angle_gamma   63.00261562
_symmetry_Int_Tables_number   1
_chemical_formula_structural   Sr
_chemical_formula_sum   Sr7
_cell_volume   184.12942673
_cell_formula_units_Z   7
loop_
 _symmetry_equiv_pos_site_id
 _symmetry_equiv_pos_as_xyz
  1  'x, y, z'
loop_
 _atom_site_type_symbol
 _atom_site_label
 _atom_site_symmetry_multiplicity
 _atom_site_fract_x
 _atom_site_fract_y
 _atom_site_fract_z
 _atom_site_occupancy
  Sr  Sr0  1  0.098834  0.832479  0.091697  1
  Sr  Sr1  1  0.253395  0.443586  0.531761  1
  Sr  Sr2  1  0.328901  0.187610  0.100561  1
  Sr  Sr3  1  0.367391  0.852447  0.618401  1
  Sr  Sr4  1  0.722468  0.641590  0.183056  1
  Sr  Sr5  1  0.768656  0.405221  0.828741  1
  Sr  Sr6  1  0.797075  0.023391  0.566416  1
