# generated using pymatgen
data_Sr
_symmetry_space_group_name_H-M   P-1
_cell_length_a   5.63705696
_cell_length_b   8.56318707
_cell_length_c   8.59389886
_cell_angle_alpha   65.69030229
_cell_angle_beta   72.10774532
_cell_angle_gamma   78.43795147
_symmetry_Int_Tables_number   2
_chemical_formula_structural   Sr
_chemical_formula_sum   Sr15
_cell_volume   358.46074225
_cell_formula_units_Z   15
loop_
 _symmetry_equiv_pos_site_id
 _symmetry_equiv_pos_as_xyz
  1  'x, y, z'
  2  '-x, -y, -z'
loop_
 _atom_site_type_symbol
 _atom_site_label
 _atom_site_symmetry_multiplicity
 _atom_site_fract_x
 _atom_site_fract_y
 _atom_site_fract_z
 _atom_site_occupancy
  Sr  Sr0  2  0.102747  0.340842  0.765630  1
  Sr  Sr1  2  0.110310  0.676610  0.838765  1
  Sr  Sr2  2  0.202097  0.977368  0.099246  1
  Sr  Sr3  2  0.292394  0.344959  0.356183  1
  Sr  Sr4  2  0.310793  0.657905  0.441851  1
  Sr  Sr5  2  0.405611  0.015825  0.688182  1
  Sr  Sr6  2  0.480830  0.323453  0.972683  1
  Sr  Sr7  1  0.000000  0.000000  0.500000  1
