# generated using pymatgen
data_Sr
_symmetry_space_group_name_H-M   P1
_cell_length_a   5.99007224
_cell_length_b   6.04241037
_cell_length_c   11.42187349
_cell_angle_alpha   82.93654096
_cell_angle_beta   85.12908464
_cell_angle_gamma   88.51609468
_symmetry_Int_Tables_number   1
_chemical_formula_structural   Sr
_chemical_formula_sum   Sr18
_cell_volume   408.73955634
_cell_formula_units_Z   18
loop_
 _symmetry_equiv_pos_site_id
 _symmetry_equiv_pos_as_xyz
  1  'x, y, z'
loop_
 _atom_site_type_symbol
 _atom_site_label
 _atom_site_symmetry_multiplicity
 _atom_site_fract_x
 _atom_site_fract_y
 _atom_site_fract_z
 _atom_site_occupancy
  Sr  Sr0  1  0.009237  0.378203  0.500168  1
  Sr  Sr1  1  0.059500  0.211749  0.033837  1
  Sr  Sr2  1  0.156861  0.826278  0.368354  1
  Sr  Sr3  1  0.159445  0.933228  0.602386  1
  Sr  Sr4  1  0.245603  0.790247  0.126376  1
  Sr  Sr5  1  0.253551  0.636124  0.885648  1
  Sr  Sr6  1  0.312414  0.272320  0.296099  1
  Sr  Sr7  1  0.350947  0.466729  0.661897  1
  Sr  Sr8  1  0.448396  0.074173  0.852372  1
  Sr  Sr9  1  0.540884  0.363621  0.046164  1
  Sr  Sr10  1  0.567756  0.572959  0.418354  1
  Sr  Sr11  1  0.611652  0.064088  0.594926  1
  Sr  Sr12  1  0.687854  0.902767  0.136552  1
  Sr  Sr13  1  0.720541  0.022054  0.362639  1
  Sr  Sr14  1  0.787184  0.632420  0.693652  1
  Sr  Sr15  1  0.806796  0.742103  0.920839  1
  Sr  Sr16  1  0.883057  0.460911  0.219354  1
  Sr  Sr17  1  0.929562  0.190973  0.801905  1
