# generated using pymatgen
data_Sr
_symmetry_space_group_name_H-M   P1
_cell_length_a   5.63768885
_cell_length_b   8.39362374
_cell_length_c   9.61142312
_cell_angle_alpha   72.43899175
_cell_angle_beta   86.11194198
_cell_angle_gamma   71.96087492
_symmetry_Int_Tables_number   1
_chemical_formula_structural   Sr
_chemical_formula_sum   Sr19
_cell_volume   412.14306259
_cell_formula_units_Z   19
loop_
 _symmetry_equiv_pos_site_id
 _symmetry_equiv_pos_as_xyz
  1  'x, y, z'
loop_
 _atom_site_type_symbol
 _atom_site_label
 _atom_site_symmetry_multiplicity
 _atom_site_fract_x
 _atom_site_fract_y
 _atom_site_fract_z
 _atom_site_occupancy
  Sr  Sr0  1  0.014412  0.026959  0.987286  1
  Sr  Sr1  1  0.019333  0.719748  0.664433  1
  Sr  Sr2  1  0.070594  0.135333  0.390719  1
  Sr  Sr3  1  0.087766  0.370997  0.628480  1
  Sr  Sr4  1  0.122310  0.344017  0.086288  1
  Sr  Sr5  1  0.281948  0.638662  0.920080  1
  Sr  Sr6  1  0.382261  0.595999  0.212804  1
  Sr  Sr7  1  0.418430  0.936458  0.769296  1
  Sr  Sr8  1  0.455970  0.955967  0.170352  1
  Sr  Sr9  1  0.464700  0.227360  0.851048  1
  Sr  Sr10  1  0.498415  0.249470  0.439915  1
  Sr  Sr11  1  0.501067  0.545076  0.554464  1
  Sr  Sr12  1  0.526529  0.879067  0.494817  1
  Sr  Sr13  1  0.666234  0.238613  0.153309  1
  Sr  Sr14  1  0.748822  0.474242  0.849239  1
  Sr  Sr15  1  0.780250  0.752816  0.005384  1
  Sr  Sr16  1  0.883502  0.076169  0.679125  1
  Sr  Sr17  1  0.892017  0.535295  0.306503  1
  Sr  Sr18  1  0.990359  0.845209  0.332072  1
