# generated using pymatgen
data_Sr
_symmetry_space_group_name_H-M   P1
_cell_length_a   6.28494084
_cell_length_b   6.46782739
_cell_length_c   6.63080013
_cell_angle_alpha   83.90108750
_cell_angle_beta   75.12068351
_cell_angle_gamma   63.58460108
_symmetry_Int_Tables_number   1
_chemical_formula_structural   Sr
_chemical_formula_sum   Sr10
_cell_volume   233.29488228
_cell_formula_units_Z   10
loop_
 _symmetry_equiv_pos_site_id
 _symmetry_equiv_pos_as_xyz
  1  'x, y, z'
loop_
 _atom_site_type_symbol
 _atom_site_label
 _atom_site_symmetry_multiplicity
 _atom_site_fract_x
 _atom_site_fract_y
 _atom_site_fract_z
 _atom_site_occupancy
  Sr  Sr0  1  0.079869  0.698564  0.964847  1
  Sr  Sr1  1  0.145356  0.060302  0.645627  1
  Sr  Sr2  1  0.162465  0.433076  0.397539  1
  Sr  Sr3  1  0.289652  0.962672  0.054046  1
  Sr  Sr4  1  0.498826  0.706826  0.370081  1
  Sr  Sr5  1  0.502204  0.366792  0.717066  1
  Sr  Sr6  1  0.621455  0.119328  0.085079  1
  Sr  Sr7  1  0.724454  0.670333  0.744948  1
  Sr  Sr8  1  0.828351  0.991068  0.452856  1
  Sr  Sr9  1  0.869054  0.384668  0.101740  1
