# generated using pymatgen
data_Sr
_symmetry_space_group_name_H-M   P1
_cell_length_a   3.67899535
_cell_length_b   5.93998156
_cell_length_c   5.95482791
_cell_angle_alpha   84.13292012
_cell_angle_beta   81.33964896
_cell_angle_gamma   78.28151668
_symmetry_Int_Tables_number   1
_chemical_formula_structural   Sr
_chemical_formula_sum   Sr5
_cell_volume   125.62130745
_cell_formula_units_Z   5
loop_
 _symmetry_equiv_pos_site_id
 _symmetry_equiv_pos_as_xyz
  1  'x, y, z'
loop_
 _atom_site_type_symbol
 _atom_site_label
 _atom_site_symmetry_multiplicity
 _atom_site_fract_x
 _atom_site_fract_y
 _atom_site_fract_z
 _atom_site_occupancy
  Sr  Sr0  1  0.148500  0.090123  0.934617  1
  Sr  Sr1  1  0.301444  0.392055  0.229875  1
  Sr  Sr2  1  0.436944  0.910931  0.423119  1
  Sr  Sr3  1  0.732236  0.407539  0.627751  1
  Sr  Sr4  1  0.858395  0.715800  0.939167  1
