# generated using pymatgen
data_Sr
_symmetry_space_group_name_H-M   Cm
_cell_length_a   15.56079513
_cell_length_b   3.47327865
_cell_length_c   7.82684075
_cell_angle_alpha   90.00000000
_cell_angle_beta   90.93528603
_cell_angle_gamma   90.00000000
_symmetry_Int_Tables_number   8
_chemical_formula_structural   Sr
_chemical_formula_sum   Sr16
_cell_volume   422.96072708
_cell_formula_units_Z   16
loop_
 _symmetry_equiv_pos_site_id
 _symmetry_equiv_pos_as_xyz
  1  'x, y, z'
  2  'x, -y, z'
  3  'x+1/2, y+1/2, z'
  4  'x+1/2, -y+1/2, z'
loop_
 _atom_site_type_symbol
 _atom_site_label
 _atom_site_symmetry_multiplicity
 _atom_site_fract_x
 _atom_site_fract_y
 _atom_site_fract_z
 _atom_site_occupancy
  Sr  Sr0  2  0.025010  0.000000  0.469335  1
  Sr  Sr1  2  0.076356  0.000000  0.869560  1
  Sr  Sr2  2  0.159913  0.000000  0.211043  1
  Sr  Sr3  2  0.208300  0.500000  0.637814  1
  Sr  Sr4  2  0.290577  0.500000  0.030271  1
  Sr  Sr5  2  0.317925  0.000000  0.390643  1
  Sr  Sr6  2  0.396720  0.000000  0.741229  1
  Sr  Sr7  2  0.461387  0.000000  0.142056  1
