# generated using pymatgen
data_Sr
_symmetry_space_group_name_H-M   P1
_cell_length_a   5.72629964
_cell_length_b   6.22111984
_cell_length_c   6.45196924
_cell_angle_alpha   83.43139953
_cell_angle_beta   65.36299820
_cell_angle_gamma   74.68974719
_symmetry_Int_Tables_number   1
_chemical_formula_structural   Sr
_chemical_formula_sum   Sr10
_cell_volume   201.50444225
_cell_formula_units_Z   10
loop_
 _symmetry_equiv_pos_site_id
 _symmetry_equiv_pos_as_xyz
  1  'x, y, z'
loop_
 _atom_site_type_symbol
 _atom_site_label
 _atom_site_symmetry_multiplicity
 _atom_site_fract_x
 _atom_site_fract_y
 _atom_site_fract_z
 _atom_site_occupancy
  Sr  Sr0  1  0.028037  0.088200  0.504545  1
  Sr  Sr1  1  0.043299  0.689197  0.660654  1
  Sr  Sr2  1  0.045572  0.874728  0.092528  1
  Sr  Sr3  1  0.057480  0.475552  0.287805  1
  Sr  Sr4  1  0.312863  0.286736  0.869724  1
  Sr  Sr5  1  0.510624  0.704176  0.718043  1
  Sr  Sr6  1  0.526595  0.537485  0.318658  1
  Sr  Sr7  1  0.576294  0.067167  0.433131  1
  Sr  Sr8  1  0.586509  0.895524  0.044594  1
  Sr  Sr9  1  0.804644  0.322918  0.880476  1
