# generated using pymatgen
data_Sr
_symmetry_space_group_name_H-M   P1
_cell_length_a   5.70891845
_cell_length_b   8.35043892
_cell_length_c   10.26921586
_cell_angle_alpha   83.69353272
_cell_angle_beta   75.96520225
_cell_angle_gamma   71.24517755
_symmetry_Int_Tables_number   1
_chemical_formula_structural   Sr
_chemical_formula_sum   Sr21
_cell_volume   449.45129349
_cell_formula_units_Z   21
loop_
 _symmetry_equiv_pos_site_id
 _symmetry_equiv_pos_as_xyz
  1  'x, y, z'
loop_
 _atom_site_type_symbol
 _atom_site_label
 _atom_site_symmetry_multiplicity
 _atom_site_fract_x
 _atom_site_fract_y
 _atom_site_fract_z
 _atom_site_occupancy
  Sr  Sr0  1  0.005601  0.697602  0.633810  1
  Sr  Sr1  1  0.024512  0.030251  0.154542  1
  Sr  Sr2  1  0.133530  0.493349  0.138466  1
  Sr  Sr3  1  0.143909  0.796792  0.967483  1
  Sr  Sr4  1  0.182042  0.308059  0.407921  1
  Sr  Sr5  1  0.222126  0.944028  0.469765  1
  Sr  Sr6  1  0.265461  0.186265  0.920570  1
  Sr  Sr7  1  0.338093  0.627548  0.338879  1
  Sr  Sr8  1  0.339593  0.355628  0.644928  1
  Sr  Sr9  1  0.417789  0.887880  0.702374  1
  Sr  Sr10  1  0.457095  0.069592  0.206990  1
  Sr  Sr11  1  0.501392  0.548585  0.796819  1
  Sr  Sr12  1  0.571540  0.746382  0.092732  1
  Sr  Sr13  1  0.623463  0.297655  0.016560  1
  Sr  Sr14  1  0.697542  0.083211  0.498253  1
  Sr  Sr15  1  0.712764  0.548736  0.515975  1
  Sr  Sr16  1  0.740883  0.953373  0.840899  1
  Sr  Sr17  1  0.756404  0.335850  0.277792  1
  Sr  Sr18  1  0.819127  0.792025  0.321254  1
  Sr  Sr19  1  0.924280  0.520907  0.897133  1
  Sr  Sr20  1  0.927014  0.205839  0.702989  1
