# generated using pymatgen
data_Sr
_symmetry_space_group_name_H-M   P-1
_cell_length_a   4.27671970
_cell_length_b   7.12113400
_cell_length_c   7.97138127
_cell_angle_alpha   106.85843903
_cell_angle_beta   90.45837303
_cell_angle_gamma   94.47461596
_symmetry_Int_Tables_number   2
_chemical_formula_structural   Sr
_chemical_formula_sum   Sr9
_cell_volume   231.50844843
_cell_formula_units_Z   9
loop_
 _symmetry_equiv_pos_site_id
 _symmetry_equiv_pos_as_xyz
  1  'x, y, z'
  2  '-x, -y, -z'
loop_
 _atom_site_type_symbol
 _atom_site_label
 _atom_site_symmetry_multiplicity
 _atom_site_fract_x
 _atom_site_fract_y
 _atom_site_fract_z
 _atom_site_occupancy
  Sr  Sr0  2  0.055299  0.897954  0.723767  1
  Sr  Sr1  2  0.168677  0.659081  0.168431  1
  Sr  Sr2  2  0.284142  0.423759  0.597133  1
  Sr  Sr3  2  0.380928  0.211622  0.050552  1
  Sr  Sr4  1  0.500000  0.000000  0.500000  1
