# generated using pymatgen
data_Sr
_symmetry_space_group_name_H-M   Pm
_cell_length_a   8.75648441
_cell_length_b   3.15827406
_cell_length_c   9.81654123
_cell_angle_alpha   90.00000000
_cell_angle_beta   103.24016759
_cell_angle_gamma   90.00000000
_symmetry_Int_Tables_number   6
_chemical_formula_structural   Sr
_chemical_formula_sum   Sr11
_cell_volume   264.26382514
_cell_formula_units_Z   11
loop_
 _symmetry_equiv_pos_site_id
 _symmetry_equiv_pos_as_xyz
  1  'x, y, z'
  2  'x, -y, z'
loop_
 _atom_site_type_symbol
 _atom_site_label
 _atom_site_symmetry_multiplicity
 _atom_site_fract_x
 _atom_site_fract_y
 _atom_site_fract_z
 _atom_site_occupancy
  Sr  Sr0  1  0.010820  0.000000  0.239977  1
  Sr  Sr1  1  0.207188  0.500000  0.539425  1
  Sr  Sr2  1  0.222870  0.000000  0.957766  1
  Sr  Sr3  1  0.337080  0.000000  0.240087  1
  Sr  Sr4  1  0.405070  0.500000  0.819230  1
  Sr  Sr5  1  0.532745  0.500000  0.511406  1
  Sr  Sr6  1  0.625554  0.000000  0.123075  1
  Sr  Sr7  1  0.681997  0.000000  0.799575  1
  Sr  Sr8  1  0.809562  0.500000  0.412900  1
  Sr  Sr9  1  0.925216  0.500000  0.989251  1
  Sr  Sr10  1  0.959105  0.000000  0.686956  1
