# generated using pymatgen
data_Sr
_symmetry_space_group_name_H-M   P1
_cell_length_a   5.67658951
_cell_length_b   6.27145951
_cell_length_c   11.56678727
_cell_angle_alpha   76.70132180
_cell_angle_beta   83.18690162
_cell_angle_gamma   69.40149377
_symmetry_Int_Tables_number   1
_chemical_formula_structural   Sr
_chemical_formula_sum   Sr17
_cell_volume   374.79979018
_cell_formula_units_Z   17
loop_
 _symmetry_equiv_pos_site_id
 _symmetry_equiv_pos_as_xyz
  1  'x, y, z'
loop_
 _atom_site_type_symbol
 _atom_site_label
 _atom_site_symmetry_multiplicity
 _atom_site_fract_x
 _atom_site_fract_y
 _atom_site_fract_z
 _atom_site_occupancy
  Sr  Sr0  1  0.149888  0.915976  0.361259  1
  Sr  Sr1  1  0.159631  0.358885  0.295779  1
  Sr  Sr2  1  0.240097  0.515626  0.855768  1
  Sr  Sr3  1  0.240870  0.715972  0.100416  1
  Sr  Sr4  1  0.306349  0.175847  0.075756  1
  Sr  Sr5  1  0.339016  0.942602  0.845468  1
  Sr  Sr6  1  0.376464  0.328840  0.637502  1
  Sr  Sr7  1  0.404283  0.762679  0.573050  1
  Sr  Sr8  1  0.579897  0.569502  0.306752  1
  Sr  Sr9  1  0.606928  0.130818  0.442137  1
  Sr  Sr10  1  0.753040  0.944291  0.218075  1
  Sr  Sr11  1  0.777688  0.376569  0.073625  1
  Sr  Sr12  1  0.778653  0.296114  0.841592  1
  Sr  Sr13  1  0.783729  0.836545  0.978082  1
  Sr  Sr14  1  0.787313  0.745198  0.711653  1
  Sr  Sr15  1  0.934335  0.569299  0.489135  1
  Sr  Sr16  1  0.970545  0.125000  0.620776  1
