# generated using pymatgen
data_Sr
_symmetry_space_group_name_H-M   P1
_cell_length_a   5.89169065
_cell_length_b   7.49061070
_cell_length_c   8.04525277
_cell_angle_alpha   69.16848592
_cell_angle_beta   72.84389262
_cell_angle_gamma   72.28474780
_symmetry_Int_Tables_number   1
_chemical_formula_structural   Sr
_chemical_formula_sum   Sr13
_cell_volume   309.07650890
_cell_formula_units_Z   13
loop_
 _symmetry_equiv_pos_site_id
 _symmetry_equiv_pos_as_xyz
  1  'x, y, z'
loop_
 _atom_site_type_symbol
 _atom_site_label
 _atom_site_symmetry_multiplicity
 _atom_site_fract_x
 _atom_site_fract_y
 _atom_site_fract_z
 _atom_site_occupancy
  Sr  Sr0  1  0.016616  0.098430  0.614023  1
  Sr  Sr1  1  0.048006  0.837970  0.395731  1
  Sr  Sr2  1  0.194876  0.255319  0.172879  1
  Sr  Sr3  1  0.234617  0.433719  0.602669  1
  Sr  Sr4  1  0.342985  0.643247  0.107457  1
  Sr  Sr5  1  0.469356  0.033001  0.821798  1
  Sr  Sr6  1  0.472695  0.801288  0.593027  1
  Sr  Sr7  1  0.601310  0.417692  0.842721  1
  Sr  Sr8  1  0.601566  0.193635  0.362205  1
  Sr  Sr9  1  0.625108  0.871777  0.166560  1
  Sr  Sr10  1  0.814117  0.500891  0.384580  1
  Sr  Sr11  1  0.956135  0.652254  0.876972  1
  Sr  Sr12  1  0.959677  0.110857  0.004936  1
