# generated using pymatgen
data_Sr
_symmetry_space_group_name_H-M   P1
_cell_length_a   5.79375281
_cell_length_b   6.02604734
_cell_length_c   8.68189176
_cell_angle_alpha   71.89416180
_cell_angle_beta   86.94418950
_cell_angle_gamma   65.85932841
_symmetry_Int_Tables_number   1
_chemical_formula_structural   Sr
_chemical_formula_sum   Sr11
_cell_volume   261.95589805
_cell_formula_units_Z   11
loop_
 _symmetry_equiv_pos_site_id
 _symmetry_equiv_pos_as_xyz
  1  'x, y, z'
loop_
 _atom_site_type_symbol
 _atom_site_label
 _atom_site_symmetry_multiplicity
 _atom_site_fract_x
 _atom_site_fract_y
 _atom_site_fract_z
 _atom_site_occupancy
  Sr  Sr0  1  0.053263  0.257493  0.963464  1
  Sr  Sr1  1  0.090710  0.006640  0.659355  1
  Sr  Sr2  1  0.166881  0.759386  0.393075  1
  Sr  Sr3  1  0.168841  0.269861  0.269585  1
  Sr  Sr4  1  0.297456  0.699086  0.022470  1
  Sr  Sr5  1  0.460251  0.413975  0.780547  1
  Sr  Sr6  1  0.519930  0.122059  0.562591  1
  Sr  Sr7  1  0.685662  0.102089  0.194591  1
  Sr  Sr8  1  0.687223  0.565708  0.341553  1
  Sr  Sr9  1  0.719467  0.845750  0.949297  1
  Sr  Sr10  1  0.847327  0.589911  0.629250  1
