# generated using pymatgen
data_Sr
_symmetry_space_group_name_H-M   C2/m
_cell_length_a   19.28290815
_cell_length_b   3.88554304
_cell_length_c   4.78882148
_cell_angle_alpha   90.00000000
_cell_angle_beta   91.27675156
_cell_angle_gamma   90.00000000
_symmetry_Int_Tables_number   12
_chemical_formula_structural   Sr
_chemical_formula_sum   Sr12
_cell_volume   358.71130977
_cell_formula_units_Z   12
loop_
 _symmetry_equiv_pos_site_id
 _symmetry_equiv_pos_as_xyz
  1  'x, y, z'
  2  '-x, -y, -z'
  3  '-x, y, -z'
  4  'x, -y, z'
  5  'x+1/2, y+1/2, z'
  6  '-x+1/2, -y+1/2, -z'
  7  '-x+1/2, y+1/2, -z'
  8  'x+1/2, -y+1/2, z'
loop_
 _atom_site_type_symbol
 _atom_site_label
 _atom_site_symmetry_multiplicity
 _atom_site_fract_x
 _atom_site_fract_y
 _atom_site_fract_z
 _atom_site_occupancy
  Sr  Sr0  4  0.059828  0.000000  0.726294  1
  Sr  Sr1  4  0.108975  0.500000  0.239622  1
  Sr  Sr2  4  0.224077  0.500000  0.748438  1
