# generated using pymatgen
data_Sr
_symmetry_space_group_name_H-M   P1
_cell_length_a   5.87689774
_cell_length_b   5.97701398
_cell_length_c   8.52360477
_cell_angle_alpha   101.46701510
_cell_angle_beta   105.76415095
_cell_angle_gamma   104.21289360
_symmetry_Int_Tables_number   1
_chemical_formula_structural   Sr
_chemical_formula_sum   Sr11
_cell_volume   267.77102914
_cell_formula_units_Z   11
loop_
 _symmetry_equiv_pos_site_id
 _symmetry_equiv_pos_as_xyz
  1  'x, y, z'
loop_
 _atom_site_type_symbol
 _atom_site_label
 _atom_site_symmetry_multiplicity
 _atom_site_fract_x
 _atom_site_fract_y
 _atom_site_fract_z
 _atom_site_occupancy
  Sr  Sr0  1  0.000314  0.375718  0.389718  1
  Sr  Sr1  1  0.023785  0.092694  0.638613  1
  Sr  Sr2  1  0.025383  0.672029  0.750740  1
  Sr  Sr3  1  0.086633  0.473527  0.034915  1
  Sr  Sr4  1  0.144070  0.034429  0.118221  1
  Sr  Sr5  1  0.347693  0.838137  0.429568  1
  Sr  Sr6  1  0.501550  0.396870  0.877769  1
  Sr  Sr7  1  0.539077  0.342611  0.520037  1
  Sr  Sr8  1  0.599049  0.884998  0.787552  1
  Sr  Sr9  1  0.605025  0.031100  0.119830  1
  Sr  Sr10  1  0.709074  0.676912  0.283858  1
