# generated using pymatgen
data_Sr
_symmetry_space_group_name_H-M   P1
_cell_length_a   3.51822018
_cell_length_b   8.30838079
_cell_length_c   8.49152403
_cell_angle_alpha   64.84846702
_cell_angle_beta   78.01663051
_cell_angle_gamma   89.92741247
_symmetry_Int_Tables_number   1
_chemical_formula_structural   Sr
_chemical_formula_sum   Sr8
_cell_volume   218.72029126
_cell_formula_units_Z   8
loop_
 _symmetry_equiv_pos_site_id
 _symmetry_equiv_pos_as_xyz
  1  'x, y, z'
loop_
 _atom_site_type_symbol
 _atom_site_label
 _atom_site_symmetry_multiplicity
 _atom_site_fract_x
 _atom_site_fract_y
 _atom_site_fract_z
 _atom_site_occupancy
  Sr  Sr0  1  0.028732  0.278324  0.743750  1
  Sr  Sr1  1  0.038006  0.642174  0.723428  1
  Sr  Sr2  1  0.232926  0.828026  0.336555  1
  Sr  Sr3  1  0.361441  0.435655  0.086425  1
  Sr  Sr4  1  0.421787  0.857934  0.956079  1
  Sr  Sr5  1  0.631115  0.063236  0.522635  1
  Sr  Sr6  1  0.717007  0.501589  0.376818  1
  Sr  Sr7  1  0.880623  0.114295  0.123098  1
