# generated using pymatgen
data_Sr
_symmetry_space_group_name_H-M   P1
_cell_length_a   5.84163054
_cell_length_b   8.35479150
_cell_length_c   8.58499731
_cell_angle_alpha   67.42117929
_cell_angle_beta   82.58158797
_cell_angle_gamma   74.61929061
_symmetry_Int_Tables_number   1
_chemical_formula_structural   Sr
_chemical_formula_sum   Sr16
_cell_volume   372.84950782
_cell_formula_units_Z   16
loop_
 _symmetry_equiv_pos_site_id
 _symmetry_equiv_pos_as_xyz
  1  'x, y, z'
loop_
 _atom_site_type_symbol
 _atom_site_label
 _atom_site_symmetry_multiplicity
 _atom_site_fract_x
 _atom_site_fract_y
 _atom_site_fract_z
 _atom_site_occupancy
  Sr  Sr0  1  0.060019  0.057495  0.955016  1
  Sr  Sr1  1  0.129941  0.141931  0.292600  1
  Sr  Sr2  1  0.169473  0.417539  0.963966  1
  Sr  Sr3  1  0.210240  0.795791  0.802494  1
  Sr  Sr4  1  0.225633  0.694195  0.207329  1
  Sr  Sr5  1  0.402518  0.371860  0.617409  1
  Sr  Sr6  1  0.421324  0.775932  0.473858  1
  Sr  Sr7  1  0.507874  0.322521  0.263969  1
  Sr  Sr8  1  0.540853  0.039757  0.990506  1
  Sr  Sr9  1  0.618118  0.008629  0.633732  1
  Sr  Sr10  1  0.673198  0.413660  0.869058  1
  Sr  Sr11  1  0.718143  0.704978  0.975037  1
  Sr  Sr12  1  0.779145  0.969172  0.285092  1
  Sr  Sr13  1  0.808926  0.540425  0.311978  1
  Sr  Sr14  1  0.957357  0.649797  0.594921  1
  Sr  Sr15  1  0.994493  0.205681  0.597136  1
