# generated using pymatgen
data_Sr
_symmetry_space_group_name_H-M   Amm2
_cell_length_a   3.27360864
_cell_length_b   3.11805348
_cell_length_c   25.05357932
_cell_angle_alpha   90.00000000
_cell_angle_beta   90.00000000
_cell_angle_gamma   90.00000000
_symmetry_Int_Tables_number   38
_chemical_formula_structural   Sr
_chemical_formula_sum   Sr10
_cell_volume   255.72906947
_cell_formula_units_Z   10
loop_
 _symmetry_equiv_pos_site_id
 _symmetry_equiv_pos_as_xyz
  1  'x, y, z'
  2  '-x, -y, z'
  3  '-x, y, z'
  4  'x, -y, z'
  5  'x, y+1/2, z+1/2'
  6  '-x, -y+1/2, z+1/2'
  7  '-x, y+1/2, z+1/2'
  8  'x, -y+1/2, z+1/2'
loop_
 _atom_site_type_symbol
 _atom_site_label
 _atom_site_symmetry_multiplicity
 _atom_site_fract_x
 _atom_site_fract_y
 _atom_site_fract_z
 _atom_site_occupancy
  Sr  Sr0  2  0.000000  0.000000  0.525718  1
  Sr  Sr1  2  0.000000  0.000000  0.818406  1
  Sr  Sr2  2  0.500000  0.000000  0.136357  1
  Sr  Sr3  2  0.500000  0.000000  0.429210  1
  Sr  Sr4  2  0.500000  0.000000  0.728035  1
