# generated using pymatgen
data_Sr
_symmetry_space_group_name_H-M   P1
_cell_length_a   6.01578606
_cell_length_b   6.63146712
_cell_length_c   8.61828325
_cell_angle_alpha   89.86818068
_cell_angle_beta   73.41501636
_cell_angle_gamma   85.63179811
_symmetry_Int_Tables_number   1
_chemical_formula_structural   Sr
_chemical_formula_sum   Sr14
_cell_volume   328.48469286
_cell_formula_units_Z   14
loop_
 _symmetry_equiv_pos_site_id
 _symmetry_equiv_pos_as_xyz
  1  'x, y, z'
loop_
 _atom_site_type_symbol
 _atom_site_label
 _atom_site_symmetry_multiplicity
 _atom_site_fract_x
 _atom_site_fract_y
 _atom_site_fract_z
 _atom_site_occupancy
  Sr  Sr0  1  0.084023  0.030927  0.599484  1
  Sr  Sr1  1  0.095054  0.217333  0.895895  1
  Sr  Sr2  1  0.154337  0.227327  0.263983  1
  Sr  Sr3  1  0.240151  0.786679  0.300846  1
  Sr  Sr4  1  0.356271  0.684776  0.775873  1
  Sr  Sr5  1  0.357694  0.418951  0.492599  1
  Sr  Sr6  1  0.550592  0.470450  0.085537  1
  Sr  Sr7  1  0.556454  0.935710  0.957533  1
  Sr  Sr8  1  0.602870  0.934217  0.509487  1
  Sr  Sr9  1  0.619461  0.276741  0.733352  1
  Sr  Sr10  1  0.730945  0.096413  0.208782  1
  Sr  Sr11  1  0.811994  0.545163  0.380002  1
  Sr  Sr12  1  0.913969  0.627756  0.691243  1
  Sr  Sr13  1  0.974895  0.694467  0.054680  1
