# generated using pymatgen
data_Sr
_symmetry_space_group_name_H-M   P1
_cell_length_a   5.97402437
_cell_length_b   6.07961074
_cell_length_c   7.27136807
_cell_angle_alpha   74.85552883
_cell_angle_beta   74.82868946
_cell_angle_gamma   87.55998298
_symmetry_Int_Tables_number   1
_chemical_formula_structural   Sr
_chemical_formula_sum   Sr11
_cell_volume   245.94327444
_cell_formula_units_Z   11
loop_
 _symmetry_equiv_pos_site_id
 _symmetry_equiv_pos_as_xyz
  1  'x, y, z'
loop_
 _atom_site_type_symbol
 _atom_site_label
 _atom_site_symmetry_multiplicity
 _atom_site_fract_x
 _atom_site_fract_y
 _atom_site_fract_z
 _atom_site_occupancy
  Sr  Sr0  1  0.005414  0.033969  0.632465  1
  Sr  Sr1  1  0.056425  0.564608  0.965459  1
  Sr  Sr2  1  0.283208  0.221919  0.247349  1
  Sr  Sr3  1  0.318037  0.364009  0.672371  1
  Sr  Sr4  1  0.402496  0.680327  0.285033  1
  Sr  Sr5  1  0.473221  0.880685  0.607619  1
  Sr  Sr6  1  0.588515  0.045244  0.931419  1
  Sr  Sr7  1  0.623616  0.519521  0.906522  1
  Sr  Sr8  1  0.748825  0.302917  0.342138  1
  Sr  Sr9  1  0.910295  0.625733  0.497689  1
  Sr  Sr10  1  0.985168  0.965734  0.103412  1
