# generated using pymatgen
data_Sr
_symmetry_space_group_name_H-M   P2/m
_cell_length_a   4.52316894
_cell_length_b   6.80037394
_cell_length_c   8.78276765
_cell_angle_alpha   90.00000000
_cell_angle_beta   101.09354828
_cell_angle_gamma   90.00000000
_symmetry_Int_Tables_number   10
_chemical_formula_structural   Sr
_chemical_formula_sum   Sr11
_cell_volume   265.10330443
_cell_formula_units_Z   11
loop_
 _symmetry_equiv_pos_site_id
 _symmetry_equiv_pos_as_xyz
  1  'x, y, z'
  2  '-x, -y, -z'
  3  '-x, y, -z'
  4  'x, -y, z'
loop_
 _atom_site_type_symbol
 _atom_site_label
 _atom_site_symmetry_multiplicity
 _atom_site_fract_x
 _atom_site_fract_y
 _atom_site_fract_z
 _atom_site_occupancy
  Sr  Sr0  4  0.124317  0.226069  0.363939  1
  Sr  Sr1  2  0.000000  0.259521  0.000000  1
  Sr  Sr2  2  0.424480  0.500000  0.826753  1
  Sr  Sr3  2  0.445449  0.000000  0.812796  1
  Sr  Sr4  1  0.500000  0.500000  0.500000  1
