# generated using pymatgen
data_Sr
_symmetry_space_group_name_H-M   P1
_cell_length_a   7.40836039
_cell_length_b   7.98778917
_cell_length_c   8.07647798
_cell_angle_alpha   92.20094379
_cell_angle_beta   115.35016084
_cell_angle_gamma   115.26721317
_symmetry_Int_Tables_number   1
_chemical_formula_structural   Sr
_chemical_formula_sum   Sr17
_cell_volume   376.01946747
_cell_formula_units_Z   17
loop_
 _symmetry_equiv_pos_site_id
 _symmetry_equiv_pos_as_xyz
  1  'x, y, z'
loop_
 _atom_site_type_symbol
 _atom_site_label
 _atom_site_symmetry_multiplicity
 _atom_site_fract_x
 _atom_site_fract_y
 _atom_site_fract_z
 _atom_site_occupancy
  Sr  Sr0  1  0.031306  0.515565  0.494600  1
  Sr  Sr1  1  0.088926  0.117942  0.758066  1
  Sr  Sr2  1  0.132712  0.644010  0.202157  1
  Sr  Sr3  1  0.172803  0.985811  0.445854  1
  Sr  Sr4  1  0.270679  0.538742  0.955475  1
  Sr  Sr5  1  0.288036  0.323275  0.285109  1
  Sr  Sr6  1  0.348983  0.023335  0.146009  1
  Sr  Sr7  1  0.351476  0.876211  0.798303  1
  Sr  Sr8  1  0.420679  0.455399  0.672745  1
  Sr  Sr9  1  0.567496  0.848868  0.553104  1
  Sr  Sr10  1  0.613311  0.366938  0.052337  1
  Sr  Sr11  1  0.691108  0.287149  0.613404  1
  Sr  Sr12  1  0.711746  0.653816  0.369725  1
  Sr  Sr13  1  0.758037  0.830699  0.056859  1
  Sr  Sr14  1  0.809442  0.113564  0.346234  1
  Sr  Sr15  1  0.842554  0.190990  0.969941  1
  Sr  Sr16  1  0.901546  0.711889  0.814547  1
