# generated using pymatgen
data_Sr
_symmetry_space_group_name_H-M   C2
_cell_length_a   14.06822803
_cell_length_b   8.20100340
_cell_length_c   8.21039450
_cell_angle_alpha   90.00000000
_cell_angle_beta   100.68441871
_cell_angle_gamma   90.00000000
_symmetry_Int_Tables_number   5
_chemical_formula_structural   Sr
_chemical_formula_sum   Sr42
_cell_volume   930.84020131
_cell_formula_units_Z   42
loop_
 _symmetry_equiv_pos_site_id
 _symmetry_equiv_pos_as_xyz
  1  'x, y, z'
  2  '-x, y, -z'
  3  'x+1/2, y+1/2, z'
  4  '-x+1/2, y+1/2, -z'
loop_
 _atom_site_type_symbol
 _atom_site_label
 _atom_site_symmetry_multiplicity
 _atom_site_fract_x
 _atom_site_fract_y
 _atom_site_fract_z
 _atom_site_occupancy
  Sr  Sr0  4  0.008574  0.224362  0.176542  1
  Sr  Sr1  4  0.044685  0.588503  0.866867  1
  Sr  Sr2  4  0.091992  0.448744  0.435639  1
  Sr  Sr3  4  0.105630  0.912747  0.876724  1
  Sr  Sr4  4  0.113097  0.887742  0.233599  1
  Sr  Sr5  4  0.123768  0.100279  0.553243  1
  Sr  Sr6  4  0.188711  0.407970  0.764048  1
  Sr  Sr7  4  0.193130  0.553984  0.176898  1
  Sr  Sr8  4  0.203320  0.218170  0.077377  1
  Sr  Sr9  4  0.215996  0.735663  0.572361  1
  Sr  Sr10  2  0.000000  0.769697  0.500000  1
