# generated using pymatgen
data_Sr
_symmetry_space_group_name_H-M   P1
_cell_length_a   6.18476321
_cell_length_b   6.39636775
_cell_length_c   7.16541562
_cell_angle_alpha   104.86941852
_cell_angle_beta   93.17404872
_cell_angle_gamma   118.80374674
_symmetry_Int_Tables_number   1
_chemical_formula_structural   Sr
_chemical_formula_sum   Sr9
_cell_volume   234.65071887
_cell_formula_units_Z   9
loop_
 _symmetry_equiv_pos_site_id
 _symmetry_equiv_pos_as_xyz
  1  'x, y, z'
loop_
 _atom_site_type_symbol
 _atom_site_label
 _atom_site_symmetry_multiplicity
 _atom_site_fract_x
 _atom_site_fract_y
 _atom_site_fract_z
 _atom_site_occupancy
  Sr  Sr0  1  0.102364  0.233855  0.948629  1
  Sr  Sr1  1  0.170464  0.297235  0.368479  1
  Sr  Sr2  1  0.309353  0.967775  0.690140  1
  Sr  Sr3  1  0.413053  0.824040  0.227056  1
  Sr  Sr4  1  0.515414  0.678142  0.799242  1
  Sr  Sr5  1  0.672306  0.293888  0.204515  1
  Sr  Sr6  1  0.803522  0.808906  0.485463  1
  Sr  Sr7  1  0.813341  0.349369  0.677451  1
  Sr  Sr8  1  0.920230  0.705735  0.063130  1
