# generated using pymatgen
data_Sr
_symmetry_space_group_name_H-M   P-1
_cell_length_a   4.45184744
_cell_length_b   5.99560163
_cell_length_c   6.05150980
_cell_angle_alpha   61.77401089
_cell_angle_beta   72.28694389
_cell_angle_gamma   69.23649002
_symmetry_Int_Tables_number   2
_chemical_formula_structural   Sr
_chemical_formula_sum   Sr5
_cell_volume   131.23220967
_cell_formula_units_Z   5
loop_
 _symmetry_equiv_pos_site_id
 _symmetry_equiv_pos_as_xyz
  1  'x, y, z'
  2  '-x, -y, -z'
loop_
 _atom_site_type_symbol
 _atom_site_label
 _atom_site_symmetry_multiplicity
 _atom_site_fract_x
 _atom_site_fract_y
 _atom_site_fract_z
 _atom_site_occupancy
  Sr  Sr0  2  0.270137  0.152403  0.312776  1
  Sr  Sr1  2  0.399190  0.461369  0.760195  1
  Sr  Sr2  1  0.000000  0.000000  0.000000  1
