# generated using pymatgen
data_Sr
_symmetry_space_group_name_H-M   P-1
_cell_length_a   3.59061616
_cell_length_b   4.31529278
_cell_length_c   5.56581157
_cell_angle_alpha   109.46787471
_cell_angle_beta   90.10110221
_cell_angle_gamma   98.56380976
_symmetry_Int_Tables_number   2
_chemical_formula_structural   Sr
_chemical_formula_sum   Sr2
_cell_volume   80.28054322
_cell_formula_units_Z   2
loop_
 _symmetry_equiv_pos_site_id
 _symmetry_equiv_pos_as_xyz
  1  'x, y, z'
  2  '-x, -y, -z'
loop_
 _atom_site_type_symbol
 _atom_site_label
 _atom_site_symmetry_multiplicity
 _atom_site_fract_x
 _atom_site_fract_y
 _atom_site_fract_z
 _atom_site_occupancy
  Sr  Sr0  2  0.223878  0.766263  0.746504  1
