# generated using pymatgen
data_Sr
_symmetry_space_group_name_H-M   P1
_cell_length_a   4.95471355
_cell_length_b   5.85999742
_cell_length_c   6.06992820
_cell_angle_alpha   118.75042316
_cell_angle_beta   91.55320419
_cell_angle_gamma   94.72958340
_symmetry_Int_Tables_number   1
_chemical_formula_structural   Sr
_chemical_formula_sum   Sr6
_cell_volume   153.53560058
_cell_formula_units_Z   6
loop_
 _symmetry_equiv_pos_site_id
 _symmetry_equiv_pos_as_xyz
  1  'x, y, z'
loop_
 _atom_site_type_symbol
 _atom_site_label
 _atom_site_symmetry_multiplicity
 _atom_site_fract_x
 _atom_site_fract_y
 _atom_site_fract_z
 _atom_site_occupancy
  Sr  Sr0  1  0.009919  0.609545  0.346481  1
  Sr  Sr1  1  0.454432  0.356358  0.385490  1
  Sr  Sr2  1  0.487126  0.998909  0.732975  1
  Sr  Sr3  1  0.514303  0.666968  0.027710  1
  Sr  Sr4  1  0.956550  0.359994  0.721118  1
  Sr  Sr5  1  0.996454  0.982625  0.955987  1
