# generated using pymatgen
data_Sr
_symmetry_space_group_name_H-M   Cm
_cell_length_a   11.98015681
_cell_length_b   3.69225636
_cell_length_c   9.00933663
_cell_angle_alpha   90.00000000
_cell_angle_beta   99.92368706
_cell_angle_gamma   90.00000000
_symmetry_Int_Tables_number   8
_chemical_formula_structural   Sr
_chemical_formula_sum   Sr14
_cell_volume   392.55473556
_cell_formula_units_Z   14
loop_
 _symmetry_equiv_pos_site_id
 _symmetry_equiv_pos_as_xyz
  1  'x, y, z'
  2  'x, -y, z'
  3  'x+1/2, y+1/2, z'
  4  'x+1/2, -y+1/2, z'
loop_
 _atom_site_type_symbol
 _atom_site_label
 _atom_site_symmetry_multiplicity
 _atom_site_fract_x
 _atom_site_fract_y
 _atom_site_fract_z
 _atom_site_occupancy
  Sr  Sr0  2  0.014863  0.500000  0.000206  1
  Sr  Sr1  2  0.062047  0.500000  0.654760  1
  Sr  Sr2  2  0.177127  0.000000  0.357367  1
  Sr  Sr3  2  0.246342  0.000000  0.857811  1
  Sr  Sr4  2  0.276995  0.500000  0.118896  1
  Sr  Sr5  2  0.368908  0.500000  0.644893  1
  Sr  Sr6  2  0.446555  0.000000  0.329432  1
