# generated using pymatgen
data_Sr
_symmetry_space_group_name_H-M   P1
_cell_length_a   5.84987534
_cell_length_b   8.04487870
_cell_length_c   8.93635800
_cell_angle_alpha   73.48165210
_cell_angle_beta   86.63660940
_cell_angle_gamma   73.47598121
_symmetry_Int_Tables_number   1
_chemical_formula_structural   Sr
_chemical_formula_sum   Sr17
_cell_volume   386.43701633
_cell_formula_units_Z   17
loop_
 _symmetry_equiv_pos_site_id
 _symmetry_equiv_pos_as_xyz
  1  'x, y, z'
loop_
 _atom_site_type_symbol
 _atom_site_label
 _atom_site_symmetry_multiplicity
 _atom_site_fract_x
 _atom_site_fract_y
 _atom_site_fract_z
 _atom_site_occupancy
  Sr  Sr0  1  0.081922  0.122782  0.460987  1
  Sr  Sr1  1  0.095839  0.659804  0.719787  1
  Sr  Sr2  1  0.177887  0.763084  0.005618  1
  Sr  Sr3  1  0.194100  0.422637  0.213439  1
  Sr  Sr4  1  0.250709  0.086563  0.806268  1
  Sr  Sr5  1  0.305390  0.867710  0.269254  1
  Sr  Sr6  1  0.361062  0.395351  0.547416  1
  Sr  Sr7  1  0.447237  0.337239  0.933626  1
  Sr  Sr8  1  0.492520  0.791701  0.605970  1
  Sr  Sr9  1  0.634895  0.120543  0.337965  1
  Sr  Sr10  1  0.659781  0.510709  0.285763  1
  Sr  Sr11  1  0.684723  0.614980  0.952861  1
  Sr  Sr12  1  0.685933  0.949410  0.058568  1
  Sr  Sr13  1  0.771563  0.010804  0.717545  1
  Sr  Sr14  1  0.814263  0.390500  0.673318  1
  Sr  Sr15  1  0.921754  0.724129  0.395194  1
  Sr  Sr16  1  0.983579  0.215361  0.057934  1
