# generated using pymatgen
data_Sr
_symmetry_space_group_name_H-M   P1
_cell_length_a   5.96186885
_cell_length_b   8.56679350
_cell_length_c   9.07799270
_cell_angle_alpha   102.77860248
_cell_angle_beta   107.89782080
_cell_angle_gamma   109.63566292
_symmetry_Int_Tables_number   1
_chemical_formula_structural   Sr
_chemical_formula_sum   Sr17
_cell_volume   387.37038499
_cell_formula_units_Z   17
loop_
 _symmetry_equiv_pos_site_id
 _symmetry_equiv_pos_as_xyz
  1  'x, y, z'
loop_
 _atom_site_type_symbol
 _atom_site_label
 _atom_site_symmetry_multiplicity
 _atom_site_fract_x
 _atom_site_fract_y
 _atom_site_fract_z
 _atom_site_occupancy
  Sr  Sr0  1  0.134826  0.252415  0.164870  1
  Sr  Sr1  1  0.142851  0.588092  0.147496  1
  Sr  Sr2  1  0.268886  0.250015  0.505093  1
  Sr  Sr3  1  0.325002  0.802055  0.651864  1
  Sr  Sr4  1  0.333652  0.424102  0.828702  1
  Sr  Sr5  1  0.390910  0.795387  0.969405  1
  Sr  Sr6  1  0.457762  0.948613  0.421930  1
  Sr  Sr7  1  0.552390  0.135850  0.216782  1
  Sr  Sr8  1  0.564537  0.591370  0.504039  1
  Sr  Sr9  1  0.568813  0.170237  0.905173  1
  Sr  Sr10  1  0.648330  0.548169  0.185630  1
  Sr  Sr11  1  0.800357  0.321047  0.710801  1
  Sr  Sr12  1  0.850777  0.694236  0.850247  1
  Sr  Sr13  1  0.919781  0.899984  0.169504  1
  Sr  Sr14  1  0.936181  0.929642  0.510734  1
  Sr  Sr15  1  0.960609  0.456379  0.454963  1
  Sr  Sr16  1  0.982644  0.043178  0.838920  1
