# generated using pymatgen
data_Sr
_symmetry_space_group_name_H-M   P1
_cell_length_a   5.94657777
_cell_length_b   5.95388491
_cell_length_c   8.47490311
_cell_angle_alpha   70.52904761
_cell_angle_beta   88.91158588
_cell_angle_gamma   87.34030631
_symmetry_Int_Tables_number   1
_chemical_formula_structural   Sr
_chemical_formula_sum   Sr13
_cell_volume   282.58922744
_cell_formula_units_Z   13
loop_
 _symmetry_equiv_pos_site_id
 _symmetry_equiv_pos_as_xyz
  1  'x, y, z'
loop_
 _atom_site_type_symbol
 _atom_site_label
 _atom_site_symmetry_multiplicity
 _atom_site_fract_x
 _atom_site_fract_y
 _atom_site_fract_z
 _atom_site_occupancy
  Sr  Sr0  1  0.103790  0.666181  0.083974  1
  Sr  Sr1  1  0.137663  0.492244  0.507261  1
  Sr  Sr2  1  0.256705  0.070040  0.734086  1
  Sr  Sr3  1  0.335858  0.959835  0.283762  1
  Sr  Sr4  1  0.453136  0.353319  0.957873  1
  Sr  Sr5  1  0.477476  0.374052  0.310279  1
  Sr  Sr6  1  0.496959  0.721489  0.623454  1
  Sr  Sr7  1  0.617091  0.802308  0.981168  1
  Sr  Sr8  1  0.718310  0.228109  0.663458  1
  Sr  Sr9  1  0.768567  0.725315  0.317195  1
  Sr  Sr10  1  0.913456  0.138654  0.357524  1
  Sr  Sr11  1  0.945830  0.227330  0.990389  1
  Sr  Sr12  1  0.967329  0.716793  0.727062  1
