# generated using pymatgen
data_Sr
_symmetry_space_group_name_H-M   P1
_cell_length_a   5.51180458
_cell_length_b   5.59405763
_cell_length_c   8.10021470
_cell_angle_alpha   100.63642224
_cell_angle_beta   105.01293919
_cell_angle_gamma   107.79072080
_symmetry_Int_Tables_number   1
_chemical_formula_structural   Sr
_chemical_formula_sum   Sr10
_cell_volume   220.04959608
_cell_formula_units_Z   10
loop_
 _symmetry_equiv_pos_site_id
 _symmetry_equiv_pos_as_xyz
  1  'x, y, z'
loop_
 _atom_site_type_symbol
 _atom_site_label
 _atom_site_symmetry_multiplicity
 _atom_site_fract_x
 _atom_site_fract_y
 _atom_site_fract_z
 _atom_site_occupancy
  Sr  Sr0  1  0.215753  0.842022  0.931443  1
  Sr  Sr1  1  0.309919  0.651072  0.280945  1
  Sr  Sr2  1  0.405476  0.226045  0.608784  1
  Sr  Sr3  1  0.467347  0.203488  0.289946  1
  Sr  Sr4  1  0.518939  0.768069  0.654708  1
  Sr  Sr5  1  0.649596  0.542800  0.998733  1
  Sr  Sr6  1  0.889705  0.157013  0.102945  1
  Sr  Sr7  1  0.903036  0.910831  0.394598  1
  Sr  Sr8  1  0.944916  0.497312  0.530800  1
  Sr  Sr9  1  0.975653  0.217370  0.774111  1
