# generated using pymatgen
data_Sr
_symmetry_space_group_name_H-M   P1
_cell_length_a   6.08369200
_cell_length_b   6.13556023
_cell_length_c   6.31752786
_cell_angle_alpha   61.62101207
_cell_angle_beta   70.96042862
_cell_angle_gamma   68.13132267
_symmetry_Int_Tables_number   1
_chemical_formula_structural   Sr
_chemical_formula_sum   Sr7
_cell_volume   189.30332471
_cell_formula_units_Z   7
loop_
 _symmetry_equiv_pos_site_id
 _symmetry_equiv_pos_as_xyz
  1  'x, y, z'
loop_
 _atom_site_type_symbol
 _atom_site_label
 _atom_site_symmetry_multiplicity
 _atom_site_fract_x
 _atom_site_fract_y
 _atom_site_fract_z
 _atom_site_occupancy
  Sr  Sr0  1  0.209193  0.416705  0.476281  1
  Sr  Sr1  1  0.359204  0.040445  0.952875  1
  Sr  Sr2  1  0.542510  0.741177  0.517253  1
  Sr  Sr3  1  0.549353  0.419341  0.026368  1
  Sr  Sr4  1  0.900584  0.954396  0.122164  1
  Sr  Sr5  1  0.906254  0.106232  0.513994  1
  Sr  Sr6  1  0.989377  0.610092  0.916862  1
