# generated using pymatgen
data_Sr
_symmetry_space_group_name_H-M   P1
_cell_length_a   5.99590342
_cell_length_b   8.35324645
_cell_length_c   8.57478782
_cell_angle_alpha   88.07063981
_cell_angle_beta   70.36356803
_cell_angle_gamma   70.29712026
_symmetry_Int_Tables_number   1
_chemical_formula_structural   Sr
_chemical_formula_sum   Sr17
_cell_volume   379.27379514
_cell_formula_units_Z   17
loop_
 _symmetry_equiv_pos_site_id
 _symmetry_equiv_pos_as_xyz
  1  'x, y, z'
loop_
 _atom_site_type_symbol
 _atom_site_label
 _atom_site_symmetry_multiplicity
 _atom_site_fract_x
 _atom_site_fract_y
 _atom_site_fract_z
 _atom_site_occupancy
  Sr  Sr0  1  0.030862  0.480931  0.321129  1
  Sr  Sr1  1  0.046063  0.741219  0.810253  1
  Sr  Sr2  1  0.137891  0.194060  0.911707  1
  Sr  Sr3  1  0.193069  0.814389  0.110251  1
  Sr  Sr4  1  0.283021  0.108739  0.473668  1
  Sr  Sr5  1  0.390711  0.472263  0.928712  1
  Sr  Sr6  1  0.393445  0.631748  0.420200  1
  Sr  Sr7  1  0.441692  0.864474  0.707649  1
  Sr  Sr8  1  0.462570  0.333194  0.586899  1
  Sr  Sr9  1  0.554497  0.252320  0.177351  1
  Sr  Sr10  1  0.577066  0.973750  0.995939  1
  Sr  Sr11  1  0.686143  0.841864  0.268429  1
  Sr  Sr12  1  0.776949  0.540375  0.060686  1
  Sr  Sr13  1  0.810157  0.153036  0.754684  1
  Sr  Sr14  1  0.839201  0.522624  0.675407  1
  Sr  Sr15  1  0.912533  0.890283  0.506396  1
  Sr  Sr16  1  0.962855  0.161001  0.280276  1
