# generated using pymatgen
data_Sr
_symmetry_space_group_name_H-M   P1
_cell_length_a   6.09340352
_cell_length_b   7.07033674
_cell_length_c   7.84241435
_cell_angle_alpha   65.32039544
_cell_angle_beta   69.36346837
_cell_angle_gamma   74.41266278
_symmetry_Int_Tables_number   1
_chemical_formula_structural   Sr
_chemical_formula_sum   Sr13
_cell_volume   284.35863571
_cell_formula_units_Z   13
loop_
 _symmetry_equiv_pos_site_id
 _symmetry_equiv_pos_as_xyz
  1  'x, y, z'
loop_
 _atom_site_type_symbol
 _atom_site_label
 _atom_site_symmetry_multiplicity
 _atom_site_fract_x
 _atom_site_fract_y
 _atom_site_fract_z
 _atom_site_occupancy
  Sr  Sr0  1  0.083020  0.655983  0.039166  1
  Sr  Sr1  1  0.131695  0.036951  0.065763  1
  Sr  Sr2  1  0.175315  0.755169  0.523254  1
  Sr  Sr3  1  0.187095  0.259753  0.642411  1
  Sr  Sr4  1  0.203831  0.246317  0.284026  1
  Sr  Sr5  1  0.470465  0.630737  0.188810  1
  Sr  Sr6  1  0.475945  0.837548  0.708526  1
  Sr  Sr7  1  0.478058  0.348506  0.834155  1
  Sr  Sr8  1  0.646207  0.983154  0.173324  1
  Sr  Sr9  1  0.705786  0.211003  0.386287  1
  Sr  Sr10  1  0.807889  0.594647  0.461348  1
  Sr  Sr11  1  0.830100  0.004051  0.756372  1
  Sr  Sr12  1  0.839049  0.471173  0.921550  1
