# generated using pymatgen
data_Sr
_symmetry_space_group_name_H-M   P1
_cell_length_a   5.90015810
_cell_length_b   6.18386562
_cell_length_c   9.34762718
_cell_angle_alpha   89.40730348
_cell_angle_beta   85.11203174
_cell_angle_gamma   63.28507611
_symmetry_Int_Tables_number   1
_chemical_formula_structural   Sr
_chemical_formula_sum   Sr16
_cell_volume   303.39153209
_cell_formula_units_Z   16
loop_
 _symmetry_equiv_pos_site_id
 _symmetry_equiv_pos_as_xyz
  1  'x, y, z'
loop_
 _atom_site_type_symbol
 _atom_site_label
 _atom_site_symmetry_multiplicity
 _atom_site_fract_x
 _atom_site_fract_y
 _atom_site_fract_z
 _atom_site_occupancy
  Sr  Sr0  1  0.032504  0.151344  0.748091  1
  Sr  Sr1  1  0.226833  0.607068  0.008628  1
  Sr  Sr2  1  0.249334  0.034754  0.023671  1
  Sr  Sr3  1  0.322823  0.017186  0.453632  1
  Sr  Sr4  1  0.337038  0.497874  0.461921  1
  Sr  Sr5  1  0.403812  0.731087  0.744211  1
  Sr  Sr6  1  0.435310  0.245867  0.194851  1
  Sr  Sr7  1  0.467259  0.217458  0.755036  1
  Sr  Sr8  1  0.469000  0.691892  0.240829  1
  Sr  Sr9  1  0.749250  0.524925  0.967578  1
  Sr  Sr10  1  0.785153  0.494216  0.525973  1
  Sr  Sr11  1  0.790284  0.040386  0.966039  1
  Sr  Sr12  1  0.845241  0.025196  0.534950  1
  Sr  Sr13  1  0.896307  0.215145  0.253539  1
  Sr  Sr14  1  0.908381  0.733420  0.277614  1
  Sr  Sr15  1  0.981296  0.666755  0.729331  1
