# generated using pymatgen
data_Sr
_symmetry_space_group_name_H-M   Cm
_cell_length_a   17.98353770
_cell_length_b   3.12539955
_cell_length_c   8.38668977
_cell_angle_alpha   90.00000000
_cell_angle_beta   117.51266056
_cell_angle_gamma   90.00000000
_symmetry_Int_Tables_number   8
_chemical_formula_structural   Sr
_chemical_formula_sum   Sr18
_cell_volume   418.07115758
_cell_formula_units_Z   18
loop_
 _symmetry_equiv_pos_site_id
 _symmetry_equiv_pos_as_xyz
  1  'x, y, z'
  2  'x, -y, z'
  3  'x+1/2, y+1/2, z'
  4  'x+1/2, -y+1/2, z'
loop_
 _atom_site_type_symbol
 _atom_site_label
 _atom_site_symmetry_multiplicity
 _atom_site_fract_x
 _atom_site_fract_y
 _atom_site_fract_z
 _atom_site_occupancy
  Sr  Sr0  2  0.009779  0.000000  0.571856  1
  Sr  Sr1  2  0.025988  0.500000  0.263613  1
  Sr  Sr2  2  0.044918  0.000000  0.948042  1
  Sr  Sr3  2  0.185831  0.000000  0.799383  1
  Sr  Sr4  2  0.198078  0.500000  0.160078  1
  Sr  Sr5  2  0.206501  0.500000  0.500226  1
  Sr  Sr6  2  0.350974  0.000000  0.264727  1
  Sr  Sr7  2  0.360248  0.500000  0.950031  1
  Sr  Sr8  2  0.371236  0.000000  0.646180  1
