# generated using pymatgen
data_Sr
_symmetry_space_group_name_H-M   P-3m1
_cell_length_a   6.33658560
_cell_length_b   6.33658560
_cell_length_c   9.07782766
_cell_angle_alpha   90.00000000
_cell_angle_beta   90.00000000
_cell_angle_gamma   120.00000000
_symmetry_Int_Tables_number   164
_chemical_formula_structural   Sr
_chemical_formula_sum   Sr16
_cell_volume   315.66263504
_cell_formula_units_Z   16
loop_
 _symmetry_equiv_pos_site_id
 _symmetry_equiv_pos_as_xyz
  1  'x, y, z'
  2  '-x, -y, -z'
  3  'x-y, x, z+1/4'
  4  '-x+y, -x, -z+1/4'
  5  '-y, x-y, z'
  6  'y, -x+y, -z'
  7  '-x, -y, z+1/4'
  8  'x, y, -z+1/4'
  9  '-x+y, -x, z'
  10  'x-y, x, -z'
  11  'y, -x+y, z+1/4'
  12  '-y, x-y, -z+1/4'
  13  '-y, -x, -z+1/4'
  14  'y, x, z+1/4'
  15  '-x, -x+y, -z'
  16  'x, x-y, z'
  17  '-x+y, y, -z+1/4'
  18  'x-y, -y, z+1/4'
  19  'y, x, -z'
  20  '-y, -x, z'
  21  'x, x-y, -z+1/4'
  22  '-x, -x+y, z+1/4'
  23  'x-y, -y, -z'
  24  '-x+y, y, z'
  25  'x, y, z+1/2'
  26  '-x, -y, -z+1/2'
  27  'x-y, x, z+3/4'
  28  '-x+y, -x, -z+3/4'
  29  '-y, x-y, z+1/2'
  30  'y, -x+y, -z+1/2'
  31  '-x, -y, z+3/4'
  32  'x, y, -z+3/4'
  33  '-x+y, -x, z+1/2'
  34  'x-y, x, -z+1/2'
  35  'y, -x+y, z+3/4'
  36  '-y, x-y, -z+3/4'
  37  '-y, -x, -z+3/4'
  38  'y, x, z+3/4'
  39  '-x, -x+y, -z+1/2'
  40  'x, x-y, z+1/2'
  41  '-x+y, y, -z+3/4'
  42  'x-y, -y, z+3/4'
  43  'y, x, -z+1/2'
  44  '-y, -x, z+1/2'
  45  'x, x-y, -z+3/4'
  46  '-x, -x+y, z+3/4'
  47  'x-y, -y, -z+1/2'
  48  '-x+y, y, z+1/2'
  49  'x, y+1/2, z'
  50  '-x, -y+1/2, -z'
  51  'x-y, x+1/2, z+1/4'
  52  '-x+y, -x+1/2, -z+1/4'
  53  '-y, x-y+1/2, z'
  54  'y, -x+y+1/2, -z'
  55  '-x, -y+1/2, z+1/4'
  56  'x, y+1/2, -z+1/4'
  57  '-x+y, -x+1/2, z'
  58  'x-y, x+1/2, -z'
  59  'y, -x+y+1/2, z+1/4'
  60  '-y, x-y+1/2, -z+1/4'
  61  '-y, -x+1/2, -z+1/4'
  62  'y, x+1/2, z+1/4'
  63  '-x, -x+y+1/2, -z'
  64  'x, x-y+1/2, z'
  65  '-x+y, y+1/2, -z+1/4'
  66  'x-y, -y+1/2, z+1/4'
  67  'y, x+1/2, -z'
  68  '-y, -x+1/2, z'
  69  'x, x-y+1/2, -z+1/4'
  70  '-x, -x+y+1/2, z+1/4'
  71  'x-y, -y+1/2, -z'
  72  '-x+y, y+1/2, z'
  73  'x, y+1/2, z+1/2'
  74  '-x, -y+1/2, -z+1/2'
  75  'x-y, x+1/2, z+3/4'
  76  '-x+y, -x+1/2, -z+3/4'
  77  '-y, x-y+1/2, z+1/2'
  78  'y, -x+y+1/2, -z+1/2'
  79  '-x, -y+1/2, z+3/4'
  80  'x, y+1/2, -z+3/4'
  81  '-x+y, -x+1/2, z+1/2'
  82  'x-y, x+1/2, -z+1/2'
  83  'y, -x+y+1/2, z+3/4'
  84  '-y, x-y+1/2, -z+3/4'
  85  '-y, -x+1/2, -z+3/4'
  86  'y, x+1/2, z+3/4'
  87  '-x, -x+y+1/2, -z+1/2'
  88  'x, x-y+1/2, z+1/2'
  89  '-x+y, y+1/2, -z+3/4'
  90  'x-y, -y+1/2, z+3/4'
  91  'y, x+1/2, -z+1/2'
  92  '-y, -x+1/2, z+1/2'
  93  'x, x-y+1/2, -z+3/4'
  94  '-x, -x+y+1/2, z+3/4'
  95  'x-y, -y+1/2, -z+1/2'
  96  '-x+y, y+1/2, z+1/2'
  97  'x+1/2, y, z'
  98  '-x+1/2, -y, -z'
  99  'x-y+1/2, x, z+1/4'
  100  '-x+y+1/2, -x, -z+1/4'
  101  '-y+1/2, x-y, z'
  102  'y+1/2, -x+y, -z'
  103  '-x+1/2, -y, z+1/4'
  104  'x+1/2, y, -z+1/4'
  105  '-x+y+1/2, -x, z'
  106  'x-y+1/2, x, -z'
  107  'y+1/2, -x+y, z+1/4'
  108  '-y+1/2, x-y, -z+1/4'
  109  '-y+1/2, -x, -z+1/4'
  110  'y+1/2, x, z+1/4'
  111  '-x+1/2, -x+y, -z'
  112  'x+1/2, x-y, z'
  113  '-x+y+1/2, y, -z+1/4'
  114  'x-y+1/2, -y, z+1/4'
  115  'y+1/2, x, -z'
  116  '-y+1/2, -x, z'
  117  'x+1/2, x-y, -z+1/4'
  118  '-x+1/2, -x+y, z+1/4'
  119  'x-y+1/2, -y, -z'
  120  '-x+y+1/2, y, z'
  121  'x+1/2, y, z+1/2'
  122  '-x+1/2, -y, -z+1/2'
  123  'x-y+1/2, x, z+3/4'
  124  '-x+y+1/2, -x, -z+3/4'
  125  '-y+1/2, x-y, z+1/2'
  126  'y+1/2, -x+y, -z+1/2'
  127  '-x+1/2, -y, z+3/4'
  128  'x+1/2, y, -z+3/4'
  129  '-x+y+1/2, -x, z+1/2'
  130  'x-y+1/2, x, -z+1/2'
  131  'y+1/2, -x+y, z+3/4'
  132  '-y+1/2, x-y, -z+3/4'
  133  '-y+1/2, -x, -z+3/4'
  134  'y+1/2, x, z+3/4'
  135  '-x+1/2, -x+y, -z+1/2'
  136  'x+1/2, x-y, z+1/2'
  137  '-x+y+1/2, y, -z+3/4'
  138  'x-y+1/2, -y, z+3/4'
  139  'y+1/2, x, -z+1/2'
  140  '-y+1/2, -x, z+1/2'
  141  'x+1/2, x-y, -z+3/4'
  142  '-x+1/2, -x+y, z+3/4'
  143  'x-y+1/2, -y, -z+1/2'
  144  '-x+y+1/2, y, z+1/2'
  145  'x+1/2, y+1/2, z'
  146  '-x+1/2, -y+1/2, -z'
  147  'x-y+1/2, x+1/2, z+1/4'
  148  '-x+y+1/2, -x+1/2, -z+1/4'
  149  '-y+1/2, x-y+1/2, z'
  150  'y+1/2, -x+y+1/2, -z'
  151  '-x+1/2, -y+1/2, z+1/4'
  152  'x+1/2, y+1/2, -z+1/4'
  153  '-x+y+1/2, -x+1/2, z'
  154  'x-y+1/2, x+1/2, -z'
  155  'y+1/2, -x+y+1/2, z+1/4'
  156  '-y+1/2, x-y+1/2, -z+1/4'
  157  '-y+1/2, -x+1/2, -z+1/4'
  158  'y+1/2, x+1/2, z+1/4'
  159  '-x+1/2, -x+y+1/2, -z'
  160  'x+1/2, x-y+1/2, z'
  161  '-x+y+1/2, y+1/2, -z+1/4'
  162  'x-y+1/2, -y+1/2, z+1/4'
  163  'y+1/2, x+1/2, -z'
  164  '-y+1/2, -x+1/2, z'
  165  'x+1/2, x-y+1/2, -z+1/4'
  166  '-x+1/2, -x+y+1/2, z+1/4'
  167  'x-y+1/2, -y+1/2, -z'
  168  '-x+y+1/2, y+1/2, z'
  169  'x+1/2, y+1/2, z+1/2'
  170  '-x+1/2, -y+1/2, -z+1/2'
  171  'x-y+1/2, x+1/2, z+3/4'
  172  '-x+y+1/2, -x+1/2, -z+3/4'
  173  '-y+1/2, x-y+1/2, z+1/2'
  174  'y+1/2, -x+y+1/2, -z+1/2'
  175  '-x+1/2, -y+1/2, z+3/4'
  176  'x+1/2, y+1/2, -z+3/4'
  177  '-x+y+1/2, -x+1/2, z+1/2'
  178  'x-y+1/2, x+1/2, -z+1/2'
  179  'y+1/2, -x+y+1/2, z+3/4'
  180  '-y+1/2, x-y+1/2, -z+3/4'
  181  '-y+1/2, -x+1/2, -z+3/4'
  182  'y+1/2, x+1/2, z+3/4'
  183  '-x+1/2, -x+y+1/2, -z+1/2'
  184  'x+1/2, x-y+1/2, z+1/2'
  185  '-x+y+1/2, y+1/2, -z+3/4'
  186  'x-y+1/2, -y+1/2, z+3/4'
  187  'y+1/2, x+1/2, -z+1/2'
  188  '-y+1/2, -x+1/2, z+1/2'
  189  'x+1/2, x-y+1/2, -z+3/4'
  190  '-x+1/2, -x+y+1/2, z+3/4'
  191  'x-y+1/2, -y+1/2, -z+1/2'
  192  '-x+y+1/2, y+1/2, z+1/2'
loop_
 _atom_site_type_symbol
 _atom_site_label
 _atom_site_symmetry_multiplicity
 _atom_site_fract_x
 _atom_site_fract_y
 _atom_site_fract_z
 _atom_site_occupancy
  Sr  Sr0  16  0.163668  0.327337  0.870820  1
