# generated using pymatgen
data_Sr
_symmetry_space_group_name_H-M   P1
_cell_length_a   4.24611359
_cell_length_b   5.58158996
_cell_length_c   5.76627874
_cell_angle_alpha   116.96702289
_cell_angle_beta   110.24196652
_cell_angle_gamma   92.82306068
_symmetry_Int_Tables_number   1
_chemical_formula_structural   Sr
_chemical_formula_sum   Sr4
_cell_volume   110.75218737
_cell_formula_units_Z   4
loop_
 _symmetry_equiv_pos_site_id
 _symmetry_equiv_pos_as_xyz
  1  'x, y, z'
loop_
 _atom_site_type_symbol
 _atom_site_label
 _atom_site_symmetry_multiplicity
 _atom_site_fract_x
 _atom_site_fract_y
 _atom_site_fract_z
 _atom_site_occupancy
  Sr  Sr0  1  0.257091  0.087120  0.694802  1
  Sr  Sr1  1  0.496739  0.657738  0.242661  1
  Sr  Sr2  1  0.681880  0.342659  0.517113  1
  Sr  Sr3  1  0.889282  0.972529  0.970705  1
