# generated using pymatgen
data_Sr
_symmetry_space_group_name_H-M   P1
_cell_length_a   6.63824663
_cell_length_b   6.89166698
_cell_length_c   10.21969258
_cell_angle_alpha   72.83199977
_cell_angle_beta   72.37098032
_cell_angle_gamma   84.70956112
_symmetry_Int_Tables_number   1
_chemical_formula_structural   Sr
_chemical_formula_sum   Sr19
_cell_volume   425.72418566
_cell_formula_units_Z   19
loop_
 _symmetry_equiv_pos_site_id
 _symmetry_equiv_pos_as_xyz
  1  'x, y, z'
loop_
 _atom_site_type_symbol
 _atom_site_label
 _atom_site_symmetry_multiplicity
 _atom_site_fract_x
 _atom_site_fract_y
 _atom_site_fract_z
 _atom_site_occupancy
  Sr  Sr0  1  0.236107  0.245602  0.619238  1
  Sr  Sr1  1  0.249875  0.062830  0.391218  1
  Sr  Sr2  1  0.249923  0.709848  0.235259  1
  Sr  Sr3  1  0.285362  0.050693  0.941788  1
  Sr  Sr4  1  0.292329  0.750991  0.774497  1
  Sr  Sr5  1  0.395529  0.654185  0.490650  1
  Sr  Sr6  1  0.399640  0.372147  0.060394  1
  Sr  Sr7  1  0.561030  0.389896  0.300110  1
  Sr  Sr8  1  0.580812  0.400284  0.723818  1
  Sr  Sr9  1  0.621021  0.712638  0.926746  1
  Sr  Sr10  1  0.635848  0.043291  0.555514  1
  Sr  Sr11  1  0.656546  0.988024  0.121691  1
  Sr  Sr12  1  0.791107  0.800931  0.369165  1
  Sr  Sr13  1  0.854724  0.035874  0.764962  1
  Sr  Sr14  1  0.936539  0.384958  0.439791  1
  Sr  Sr15  1  0.939997  0.699944  0.618791  1
  Sr  Sr16  1  0.941692  0.647270  0.075139  1
  Sr  Sr17  1  0.960864  0.355538  0.880792  1
  Sr  Sr18  1  0.976288  0.186740  0.201291  1
