# generated using pymatgen
data_Sr
_symmetry_space_group_name_H-M   P2/c
_cell_length_a   9.35209033
_cell_length_b   5.50010120
_cell_length_c   6.51463059
_cell_angle_alpha   90.00000000
_cell_angle_beta   102.71765636
_cell_angle_gamma   90.00000000
_symmetry_Int_Tables_number   13
_chemical_formula_structural   Sr
_chemical_formula_sum   Sr14
_cell_volume   326.87494883
_cell_formula_units_Z   14
loop_
 _symmetry_equiv_pos_site_id
 _symmetry_equiv_pos_as_xyz
  1  'x, y, z'
  2  '-x, -y, -z'
  3  '-x, y, -z+1/2'
  4  'x, -y, z+1/2'
loop_
 _atom_site_type_symbol
 _atom_site_label
 _atom_site_symmetry_multiplicity
 _atom_site_fract_x
 _atom_site_fract_y
 _atom_site_fract_z
 _atom_site_occupancy
  Sr  Sr0  4  0.140690  0.235664  0.189150  1
  Sr  Sr1  4  0.309044  0.200069  0.608114  1
  Sr  Sr2  4  0.420918  0.291962  0.042518  1
  Sr  Sr3  2  0.000000  0.295163  0.750000  1
