# generated using pymatgen
data_Sr
_symmetry_space_group_name_H-M   Pm
_cell_length_a   8.23946132
_cell_length_b   3.30139773
_cell_length_c   8.58957363
_cell_angle_alpha   90.00000000
_cell_angle_beta   115.17160831
_cell_angle_gamma   90.00000000
_symmetry_Int_Tables_number   6
_chemical_formula_structural   Sr
_chemical_formula_sum   Sr9
_cell_volume   211.46332378
_cell_formula_units_Z   9
loop_
 _symmetry_equiv_pos_site_id
 _symmetry_equiv_pos_as_xyz
  1  'x, y, z'
  2  'x, -y, z'
loop_
 _atom_site_type_symbol
 _atom_site_label
 _atom_site_symmetry_multiplicity
 _atom_site_fract_x
 _atom_site_fract_y
 _atom_site_fract_z
 _atom_site_occupancy
  Sr  Sr0  1  0.058789  0.000000  0.226312  1
  Sr  Sr1  1  0.149569  0.500000  0.554846  1
  Sr  Sr2  1  0.254273  0.500000  0.102590  1
  Sr  Sr3  1  0.388981  0.000000  0.813914  1
  Sr  Sr4  1  0.499906  0.000000  0.491367  1
  Sr  Sr5  1  0.614087  0.500000  0.174777  1
  Sr  Sr6  1  0.750938  0.000000  0.904767  1
  Sr  Sr7  1  0.836051  0.000000  0.447185  1
  Sr  Sr8  1  0.953941  0.500000  0.789218  1
