# generated using pymatgen
data_Sr
_symmetry_space_group_name_H-M   P1
_cell_length_a   5.96633852
_cell_length_b   7.09510679
_cell_length_c   7.51933424
_cell_angle_alpha   80.74092130
_cell_angle_beta   82.23026800
_cell_angle_gamma   83.60316129
_symmetry_Int_Tables_number   1
_chemical_formula_structural   Sr
_chemical_formula_sum   Sr17
_cell_volume   309.96444827
_cell_formula_units_Z   17
loop_
 _symmetry_equiv_pos_site_id
 _symmetry_equiv_pos_as_xyz
  1  'x, y, z'
loop_
 _atom_site_type_symbol
 _atom_site_label
 _atom_site_symmetry_multiplicity
 _atom_site_fract_x
 _atom_site_fract_y
 _atom_site_fract_z
 _atom_site_occupancy
  Sr  Sr0  1  0.055528  0.897269  0.749867  1
  Sr  Sr1  1  0.090841  0.481331  0.227464  1
  Sr  Sr2  1  0.200373  0.305789  0.561984  1
  Sr  Sr3  1  0.220052  0.246633  0.926763  1
  Sr  Sr4  1  0.243526  0.762471  0.451767  1
  Sr  Sr5  1  0.307773  0.853047  0.082468  1
  Sr  Sr6  1  0.431975  0.569478  0.819749  1
  Sr  Sr7  1  0.455527  0.075718  0.321319  1
  Sr  Sr8  1  0.503535  0.942839  0.696113  1
  Sr  Sr9  1  0.552577  0.435299  0.150758  1
  Sr  Sr10  1  0.568356  0.480925  0.485105  1
  Sr  Sr11  1  0.677160  0.157541  0.923158  1
  Sr  Sr12  1  0.764286  0.761554  0.067190  1
  Sr  Sr13  1  0.804115  0.769862  0.427562  1
  Sr  Sr14  1  0.817134  0.183676  0.567719  1
  Sr  Sr15  1  0.893866  0.539974  0.772698  1
  Sr  Sr16  1  0.936903  0.110080  0.242176  1
