# generated using pymatgen
data_Sr
_symmetry_space_group_name_H-M   Cm
_cell_length_a   10.99736235
_cell_length_b   4.55847743
_cell_length_c   6.07310299
_cell_angle_alpha   90.00000000
_cell_angle_beta   117.24294408
_cell_angle_gamma   90.00000000
_symmetry_Int_Tables_number   8
_chemical_formula_structural   Sr
_chemical_formula_sum   Sr10
_cell_volume   270.68031022
_cell_formula_units_Z   10
loop_
 _symmetry_equiv_pos_site_id
 _symmetry_equiv_pos_as_xyz
  1  'x, y, z'
  2  'x, -y, z'
  3  'x+1/2, y+1/2, z'
  4  'x+1/2, -y+1/2, z'
loop_
 _atom_site_type_symbol
 _atom_site_label
 _atom_site_symmetry_multiplicity
 _atom_site_fract_x
 _atom_site_fract_y
 _atom_site_fract_z
 _atom_site_occupancy
  Sr  Sr0  2  0.126001  0.000000  0.830953  1
  Sr  Sr1  2  0.140427  0.500000  0.208894  1
  Sr  Sr2  2  0.279426  0.500000  0.756499  1
  Sr  Sr3  2  0.404262  0.000000  0.510301  1
  Sr  Sr4  2  0.477492  0.500000  0.226718  1
