# generated using pymatgen
data_Sr
_symmetry_space_group_name_H-M   P1
_cell_length_a   3.03479278
_cell_length_b   10.80247050
_cell_length_c   12.30730108
_cell_angle_alpha   108.68630269
_cell_angle_beta   95.36418771
_cell_angle_gamma   92.47816352
_symmetry_Int_Tables_number   1
_chemical_formula_structural   Sr
_chemical_formula_sum   Sr17
_cell_volume   379.38372492
_cell_formula_units_Z   17
loop_
 _symmetry_equiv_pos_site_id
 _symmetry_equiv_pos_as_xyz
  1  'x, y, z'
loop_
 _atom_site_type_symbol
 _atom_site_label
 _atom_site_symmetry_multiplicity
 _atom_site_fract_x
 _atom_site_fract_y
 _atom_site_fract_z
 _atom_site_occupancy
  Sr  Sr0  1  0.069019  0.063011  0.616194  1
  Sr  Sr1  1  0.120889  0.607584  0.158102  1
  Sr  Sr2  1  0.123392  0.173721  0.369887  1
  Sr  Sr3  1  0.183973  0.897819  0.886897  1
  Sr  Sr4  1  0.238940  0.341557  0.035676  1
  Sr  Sr5  1  0.274547  0.885631  0.161118  1
  Sr  Sr6  1  0.292980  0.488299  0.506127  1
  Sr  Sr7  1  0.451024  0.404869  0.834741  1
  Sr  Sr8  1  0.525489  0.813217  0.621202  1
  Sr  Sr9  1  0.654514  0.383640  0.273264  1
  Sr  Sr10  1  0.670975  0.122636  0.835195  1
  Sr  Sr11  1  0.671416  0.668475  0.961754  1
  Sr  Sr12  1  0.676235  0.924205  0.388776  1
  Sr  Sr13  1  0.773823  0.111920  0.110979  1
  Sr  Sr14  1  0.793634  0.303997  0.607422  1
  Sr  Sr15  1  0.906767  0.673438  0.390471  1
  Sr  Sr16  1  0.930597  0.621077  0.724157  1
