# generated using pymatgen
data_Sr
_symmetry_space_group_name_H-M   Cm
_cell_length_a   15.78670572
_cell_length_b   3.27499532
_cell_length_c   8.89104871
_cell_angle_alpha   90.00000000
_cell_angle_beta   121.55535674
_cell_angle_gamma   90.00000000
_symmetry_Int_Tables_number   8
_chemical_formula_structural   Sr
_chemical_formula_sum   Sr14
_cell_volume   391.70901403
_cell_formula_units_Z   14
loop_
 _symmetry_equiv_pos_site_id
 _symmetry_equiv_pos_as_xyz
  1  'x, y, z'
  2  'x, -y, z'
  3  'x+1/2, y+1/2, z'
  4  'x+1/2, -y+1/2, z'
loop_
 _atom_site_type_symbol
 _atom_site_label
 _atom_site_symmetry_multiplicity
 _atom_site_fract_x
 _atom_site_fract_y
 _atom_site_fract_z
 _atom_site_occupancy
  Sr  Sr0  2  0.047061  0.000000  0.980054  1
  Sr  Sr1  2  0.116931  0.000000  0.445506  1
  Sr  Sr2  2  0.177455  0.500000  0.854097  1
  Sr  Sr3  2  0.230900  0.000000  0.281361  1
  Sr  Sr4  2  0.331875  0.500000  0.743028  1
  Sr  Sr5  2  0.407657  0.000000  0.144186  1
  Sr  Sr6  2  0.433049  0.500000  0.549688  1
