# generated using pymatgen
data_Sr
_symmetry_space_group_name_H-M   P-1
_cell_length_a   6.38084434
_cell_length_b   7.53328759
_cell_length_c   8.02767843
_cell_angle_alpha   91.40400472
_cell_angle_beta   93.78628364
_cell_angle_gamma   103.43105790
_symmetry_Int_Tables_number   2
_chemical_formula_structural   Sr
_chemical_formula_sum   Sr17
_cell_volume   374.19166542
_cell_formula_units_Z   17
loop_
 _symmetry_equiv_pos_site_id
 _symmetry_equiv_pos_as_xyz
  1  'x, y, z'
  2  '-x, -y, -z'
loop_
 _atom_site_type_symbol
 _atom_site_label
 _atom_site_symmetry_multiplicity
 _atom_site_fract_x
 _atom_site_fract_y
 _atom_site_fract_z
 _atom_site_occupancy
  Sr  Sr0  2  0.031141  0.739258  0.548564  1
  Sr  Sr1  2  0.052336  0.956216  0.250607  1
  Sr  Sr2  2  0.089133  0.738461  0.950967  1
  Sr  Sr3  2  0.217326  0.482087  0.728452  1
  Sr  Sr4  2  0.293007  0.618805  0.267605  1
  Sr  Sr5  2  0.361918  0.328193  0.018106  1
  Sr  Sr6  2  0.404053  0.025909  0.670534  1
  Sr  Sr7  2  0.418806  0.285490  0.405075  1
  Sr  Sr8  1  0.500000  0.000000  0.000000  1
