# generated using pymatgen
data_Sr
_symmetry_space_group_name_H-M   P1
_cell_length_a   5.75941259
_cell_length_b   5.97681367
_cell_length_c   6.01458052
_cell_angle_alpha   105.92578211
_cell_angle_beta   91.35689654
_cell_angle_gamma   100.37252741
_symmetry_Int_Tables_number   1
_chemical_formula_structural   Sr
_chemical_formula_sum   Sr7
_cell_volume   195.25390234
_cell_formula_units_Z   7
loop_
 _symmetry_equiv_pos_site_id
 _symmetry_equiv_pos_as_xyz
  1  'x, y, z'
loop_
 _atom_site_type_symbol
 _atom_site_label
 _atom_site_symmetry_multiplicity
 _atom_site_fract_x
 _atom_site_fract_y
 _atom_site_fract_z
 _atom_site_occupancy
  Sr  Sr0  1  0.208874  0.960382  0.254301  1
  Sr  Sr1  1  0.379001  0.087159  0.814607  1
  Sr  Sr2  1  0.409646  0.527990  0.560408  1
  Sr  Sr3  1  0.521797  0.640236  0.099150  1
  Sr  Sr4  1  0.831262  0.046348  0.616235  1
  Sr  Sr5  1  0.882730  0.330556  0.164176  1
  Sr  Sr6  1  0.939970  0.598743  0.721288  1
