# generated using pymatgen
data_Sr
_symmetry_space_group_name_H-M   P1
_cell_length_a   6.29711482
_cell_length_b   6.33766697
_cell_length_c   11.07896527
_cell_angle_alpha   75.42421162
_cell_angle_beta   78.83422071
_cell_angle_gamma   87.68440766
_symmetry_Int_Tables_number   1
_chemical_formula_structural   Sr
_chemical_formula_sum   Sr19
_cell_volume   419.80399427
_cell_formula_units_Z   19
loop_
 _symmetry_equiv_pos_site_id
 _symmetry_equiv_pos_as_xyz
  1  'x, y, z'
loop_
 _atom_site_type_symbol
 _atom_site_label
 _atom_site_symmetry_multiplicity
 _atom_site_fract_x
 _atom_site_fract_y
 _atom_site_fract_z
 _atom_site_occupancy
  Sr  Sr0  1  0.025456  0.511717  0.412659  1
  Sr  Sr1  1  0.185370  0.851877  0.837156  1
  Sr  Sr2  1  0.191274  0.109274  0.275421  1
  Sr  Sr3  1  0.203563  0.134649  0.569999  1
  Sr  Sr4  1  0.319862  0.972583  0.037568  1
  Sr  Sr5  1  0.321119  0.302536  0.783284  1
  Sr  Sr6  1  0.364514  0.759617  0.484415  1
  Sr  Sr7  1  0.409764  0.433426  0.994354  1
  Sr  Sr8  1  0.427667  0.639678  0.233460  1
  Sr  Sr9  1  0.566725  0.742934  0.700646  1
  Sr  Sr10  1  0.599348  0.375567  0.492296  1
  Sr  Sr11  1  0.610120  0.223399  0.262999  1
  Sr  Sr12  1  0.739775  0.758761  0.944903  1
  Sr  Sr13  1  0.762692  0.174125  0.729972  1
  Sr  Sr14  1  0.827723  0.963179  0.472664  1
  Sr  Sr15  1  0.830460  0.850321  0.216421  1
  Sr  Sr16  1  0.845926  0.205123  0.982042  1
  Sr  Sr17  1  0.994845  0.480619  0.131389  1
  Sr  Sr18  1  0.999121  0.586284  0.693724  1
