# generated using pymatgen
data_Sr
_symmetry_space_group_name_H-M   P-1
_cell_length_a   4.07452241
_cell_length_b   6.04615532
_cell_length_c   7.86528186
_cell_angle_alpha   99.33957750
_cell_angle_beta   97.97493575
_cell_angle_gamma   108.31155694
_symmetry_Int_Tables_number   2
_chemical_formula_structural   Sr
_chemical_formula_sum   Sr7
_cell_volume   177.75080798
_cell_formula_units_Z   7
loop_
 _symmetry_equiv_pos_site_id
 _symmetry_equiv_pos_as_xyz
  1  'x, y, z'
  2  '-x, -y, -z'
loop_
 _atom_site_type_symbol
 _atom_site_label
 _atom_site_symmetry_multiplicity
 _atom_site_fract_x
 _atom_site_fract_y
 _atom_site_fract_z
 _atom_site_occupancy
  Sr  Sr0  2  0.068695  0.228862  0.835824  1
  Sr  Sr1  2  0.220443  0.803421  0.537350  1
  Sr  Sr2  2  0.314395  0.403245  0.231173  1
  Sr  Sr3  1  0.500000  0.000000  0.000000  1
