# generated using pymatgen
data_Sr
_symmetry_space_group_name_H-M   Pm
_cell_length_a   6.26725293
_cell_length_b   2.86179052
_cell_length_c   6.75859337
_cell_angle_alpha   90.00000000
_cell_angle_beta   104.98696872
_cell_angle_gamma   90.00000000
_symmetry_Int_Tables_number   6
_chemical_formula_structural   Sr
_chemical_formula_sum   Sr4
_cell_volume   117.09587987
_cell_formula_units_Z   4
loop_
 _symmetry_equiv_pos_site_id
 _symmetry_equiv_pos_as_xyz
  1  'x, y, z'
  2  'x, -y, z'
loop_
 _atom_site_type_symbol
 _atom_site_label
 _atom_site_symmetry_multiplicity
 _atom_site_fract_x
 _atom_site_fract_y
 _atom_site_fract_z
 _atom_site_occupancy
  Sr  Sr0  1  0.172752  0.000000  0.523517  1
  Sr  Sr1  1  0.333036  0.000000  0.163711  1
  Sr  Sr2  1  0.669109  0.000000  0.950470  1
  Sr  Sr3  1  0.673106  0.000000  0.535928  1
