# generated using pymatgen
data_Sr
_symmetry_space_group_name_H-M   Cm
_cell_length_a   11.28804736
_cell_length_b   3.99512698
_cell_length_c   9.45021775
_cell_angle_alpha   90.00000000
_cell_angle_beta   104.10272484
_cell_angle_gamma   90.00000000
_symmetry_Int_Tables_number   8
_chemical_formula_structural   Sr
_chemical_formula_sum   Sr14
_cell_volume   413.33336705
_cell_formula_units_Z   14
loop_
 _symmetry_equiv_pos_site_id
 _symmetry_equiv_pos_as_xyz
  1  'x, y, z'
  2  'x, -y, z'
  3  'x+1/2, y+1/2, z'
  4  'x+1/2, -y+1/2, z'
loop_
 _atom_site_type_symbol
 _atom_site_label
 _atom_site_symmetry_multiplicity
 _atom_site_fract_x
 _atom_site_fract_y
 _atom_site_fract_z
 _atom_site_occupancy
  Sr  Sr0  2  0.091694  0.500000  0.836984  1
  Sr  Sr1  2  0.174232  0.000000  0.523611  1
  Sr  Sr2  2  0.233764  0.500000  0.190014  1
  Sr  Sr3  2  0.320299  0.000000  0.896260  1
  Sr  Sr4  2  0.413191  0.500000  0.611206  1
  Sr  Sr5  2  0.486590  0.000000  0.363093  1
  Sr  Sr6  2  0.487089  0.500000  0.103387  1
