# generated using pymatgen
data_Sr
_symmetry_space_group_name_H-M   Cm
_cell_length_a   20.92467076
_cell_length_b   3.10472140
_cell_length_c   7.20759431
_cell_angle_alpha   90.00000000
_cell_angle_beta   91.93064548
_cell_angle_gamma   90.00000000
_symmetry_Int_Tables_number   8
_chemical_formula_structural   Sr
_chemical_formula_sum   Sr18
_cell_volume   467.97752870
_cell_formula_units_Z   18
loop_
 _symmetry_equiv_pos_site_id
 _symmetry_equiv_pos_as_xyz
  1  'x, y, z'
  2  'x, -y, z'
  3  'x+1/2, y+1/2, z'
  4  'x+1/2, -y+1/2, z'
loop_
 _atom_site_type_symbol
 _atom_site_label
 _atom_site_symmetry_multiplicity
 _atom_site_fract_x
 _atom_site_fract_y
 _atom_site_fract_z
 _atom_site_occupancy
  Sr  Sr0  2  0.074749  0.500000  0.800207  1
  Sr  Sr1  2  0.077262  0.000000  0.309976  1
  Sr  Sr2  2  0.182463  0.000000  0.600632  1
  Sr  Sr3  2  0.187283  0.000000  0.044559  1
  Sr  Sr4  2  0.273975  0.500000  0.370278  1
  Sr  Sr5  2  0.326771  0.500000  0.712121  1
  Sr  Sr6  2  0.339454  0.000000  0.113010  1
  Sr  Sr7  2  0.450013  0.500000  0.487778  1
  Sr  Sr8  2  0.462623  0.000000  0.986227  1
