# generated using pymatgen
data_Sr
_symmetry_space_group_name_H-M   P-3m1
_cell_length_a   6.30140438
_cell_length_b   6.30140438
_cell_length_c   9.01137395
_cell_angle_alpha   90.00000000
_cell_angle_beta   90.00000000
_cell_angle_gamma   120.00000000
_symmetry_Int_Tables_number   164
_chemical_formula_structural   Sr
_chemical_formula_sum   Sr16
_cell_volume   309.88199623
_cell_formula_units_Z   16
loop_
 _symmetry_equiv_pos_site_id
 _symmetry_equiv_pos_as_xyz
  1  'x, y, z'
  2  '-x, -y, -z'
  3  '-y, x-y, z'
  4  'y, -x+y, -z'
  5  '-x+y, -x, z'
  6  'x-y, x, -z'
  7  'y, x, -z'
  8  '-y, -x, z'
  9  'x-y, -y, -z'
  10  '-x+y, y, z'
  11  '-x, -x+y, -z'
  12  'x, x-y, z'
loop_
 _atom_site_type_symbol
 _atom_site_label
 _atom_site_symmetry_multiplicity
 _atom_site_fract_x
 _atom_site_fract_y
 _atom_site_fract_z
 _atom_site_occupancy
  Sr  Sr0  6  0.162676  0.325352  0.373115  1
  Sr  Sr1  6  0.172374  0.344748  0.874648  1
  Sr  Sr2  2  0.333333  0.666667  0.135582  1
  Sr  Sr3  2  0.333333  0.666667  0.612747  1
