# generated using pymatgen
data_Sr13B
_symmetry_space_group_name_H-M   C2
_cell_length_a   12.73520832
_cell_length_b   5.19865813
_cell_length_c   7.78896964
_cell_angle_alpha   90.00000000
_cell_angle_beta   96.42439058
_cell_angle_gamma   90.00000000
_symmetry_Int_Tables_number   5
_chemical_formula_structural   Sr13B
_chemical_formula_sum   'Sr26 B2'
_cell_volume   512.43822495
_cell_formula_units_Z   2
loop_
 _symmetry_equiv_pos_site_id
 _symmetry_equiv_pos_as_xyz
  1  'x, y, z'
  2  '-x, y, -z'
  3  'x+1/2, y+1/2, z'
  4  '-x+1/2, y+1/2, -z'
loop_
 _atom_site_type_symbol
 _atom_site_label
 _atom_site_symmetry_multiplicity
 _atom_site_fract_x
 _atom_site_fract_y
 _atom_site_fract_z
 _atom_site_occupancy
  Sr  Sr0  4  0.050142  0.246835  0.315943  1
  Sr  Sr1  4  0.073997  0.597832  0.884947  1
  Sr  Sr2  4  0.138535  0.778219  0.225845  1
  Sr  Sr3  4  0.151736  0.051451  0.731679  1
  Sr  Sr4  4  0.196969  0.218889  0.066639  1
  Sr  Sr5  4  0.200889  0.540765  0.545051  1
  Sr  Sr6  2  0.000000  0.760949  0.500000  1
  B  B7  2  0.000000  0.067804  0.000000  1
