# generated using pymatgen
data_Sr6B5
_symmetry_space_group_name_H-M   Imm2
_cell_length_a   4.55989936
_cell_length_b   8.02476195
_cell_length_c   7.63627336
_cell_angle_alpha   90.00000000
_cell_angle_beta   90.00000000
_cell_angle_gamma   90.00000000
_symmetry_Int_Tables_number   44
_chemical_formula_structural   Sr6B5
_chemical_formula_sum   'Sr12 B10'
_cell_volume   279.42733084
_cell_formula_units_Z   2
loop_
 _symmetry_equiv_pos_site_id
 _symmetry_equiv_pos_as_xyz
  1  'x, y, z'
  2  '-x, -y, z'
  3  '-x, y, z'
  4  'x, -y, z'
  5  'x+1/2, y+1/2, z+1/2'
  6  '-x+1/2, -y+1/2, z+1/2'
  7  '-x+1/2, y+1/2, z+1/2'
  8  'x+1/2, -y+1/2, z+1/2'
loop_
 _atom_site_type_symbol
 _atom_site_label
 _atom_site_symmetry_multiplicity
 _atom_site_fract_x
 _atom_site_fract_y
 _atom_site_fract_z
 _atom_site_occupancy
  Sr  Sr0  4  0.000000  0.167806  0.704711  1
  Sr  Sr1  4  0.000000  0.332107  0.374062  1
  Sr  Sr2  2  0.000000  0.000000  0.392249  1
  Sr  Sr3  2  0.000000  0.500000  0.722996  1
  B  B4  4  0.000000  0.105538  0.065268  1
  B  B5  4  0.000000  0.303460  0.015069  1
  B  B6  2  0.000000  0.500000  0.079975  1
