# generated using pymatgen
data_Sr4B
_symmetry_space_group_name_H-M   Cm
_cell_length_a   28.92970065
_cell_length_b   3.98951628
_cell_length_c   2.92108182
_cell_angle_alpha   90.00000000
_cell_angle_beta   91.67343427
_cell_angle_gamma   90.00000000
_symmetry_Int_Tables_number   8
_chemical_formula_structural   Sr4B
_chemical_formula_sum   'Sr16 B4'
_cell_volume   336.99436646
_cell_formula_units_Z   4
loop_
 _symmetry_equiv_pos_site_id
 _symmetry_equiv_pos_as_xyz
  1  'x, y, z'
  2  'x, -y, z'
  3  'x+1/2, y+1/2, z'
  4  'x+1/2, -y+1/2, z'
loop_
 _atom_site_type_symbol
 _atom_site_label
 _atom_site_symmetry_multiplicity
 _atom_site_fract_x
 _atom_site_fract_y
 _atom_site_fract_z
 _atom_site_occupancy
  Sr  Sr0  2  0.013045  0.500000  0.371559  1
  Sr  Sr1  2  0.075707  0.000000  0.577469  1
  Sr  Sr2  2  0.130978  0.500000  0.124460  1
  Sr  Sr3  2  0.195677  0.000000  0.142874  1
  Sr  Sr4  2  0.248084  0.500000  0.641070  1
  Sr  Sr5  2  0.341654  0.500000  0.151334  1
  Sr  Sr6  2  0.393789  0.000000  0.674990  1
  Sr  Sr7  2  0.458225  0.500000  0.802083  1
  B  B8  2  0.286633  0.000000  0.138257  1
  B  B9  2  0.302986  0.000000  0.642202  1
