# generated using pymatgen
data_Sr5B2
_symmetry_space_group_name_H-M   Pm
_cell_length_a   2.98293824
_cell_length_b   4.30537045
_cell_length_c   8.64235777
_cell_angle_alpha   90.00000000
_cell_angle_beta   96.59756614
_cell_angle_gamma   90.00000000
_symmetry_Int_Tables_number   6
_chemical_formula_structural   Sr5B2
_chemical_formula_sum   'Sr5 B2'
_cell_volume   110.25579166
_cell_formula_units_Z   1
loop_
 _symmetry_equiv_pos_site_id
 _symmetry_equiv_pos_as_xyz
  1  'x, y, z'
  2  'x, -y, z'
loop_
 _atom_site_type_symbol
 _atom_site_label
 _atom_site_symmetry_multiplicity
 _atom_site_fract_x
 _atom_site_fract_y
 _atom_site_fract_z
 _atom_site_occupancy
  Sr  Sr0  1  0.026680  0.000000  0.717622  1
  Sr  Sr1  1  0.052407  0.500000  0.535994  1
  Sr  Sr2  1  0.155092  0.500000  0.162979  1
  Sr  Sr3  1  0.460176  0.000000  0.356064  1
  Sr  Sr4  1  0.625184  0.000000  0.001844  1
  B  B5  1  0.108502  0.500000  0.871993  1
  B  B6  1  0.591104  0.500000  0.818436  1
