# generated using pymatgen
data_Sr11B4
_symmetry_space_group_name_H-M   Cm
_cell_length_a   37.33935939
_cell_length_b   4.44408612
_cell_length_c   2.91271270
_cell_angle_alpha   90.00000000
_cell_angle_beta   92.41948343
_cell_angle_gamma   90.00000000
_symmetry_Int_Tables_number   8
_chemical_formula_structural   Sr11B4
_chemical_formula_sum   'Sr22 B8'
_cell_volume   482.90271408
_cell_formula_units_Z   2
loop_
 _symmetry_equiv_pos_site_id
 _symmetry_equiv_pos_as_xyz
  1  'x, y, z'
  2  'x, -y, z'
  3  'x+1/2, y+1/2, z'
  4  'x+1/2, -y+1/2, z'
loop_
 _atom_site_type_symbol
 _atom_site_label
 _atom_site_symmetry_multiplicity
 _atom_site_fract_x
 _atom_site_fract_y
 _atom_site_fract_z
 _atom_site_occupancy
  Sr  Sr0  2  0.029038  0.500000  0.060595  1
  Sr  Sr1  2  0.068526  0.000000  0.966782  1
  Sr  Sr2  2  0.116010  0.500000  0.407318  1
  Sr  Sr3  2  0.155512  0.000000  0.303130  1
  Sr  Sr4  2  0.218811  0.000000  0.849249  1
  Sr  Sr5  2  0.258409  0.500000  0.915999  1
  Sr  Sr6  2  0.303460  0.000000  0.421912  1
  Sr  Sr7  2  0.339848  0.500000  0.938835  1
  Sr  Sr8  2  0.384431  0.000000  0.925416  1
  Sr  Sr9  2  0.425277  0.500000  0.449526  1
  Sr  Sr10  2  0.465572  0.000000  0.514764  1
  B  B11  2  0.004024  0.000000  0.510354  1
  B  B12  2  0.180394  0.500000  0.853325  1
  B  B13  2  0.194608  0.500000  0.361001  1
  B  B14  2  0.489769  0.500000  0.003291  1
