# generated using pymatgen
data_Sr11B2
_symmetry_space_group_name_H-M   C2/m
_cell_length_a   20.50790117
_cell_length_b   4.34236575
_cell_length_c   5.16168521
_cell_angle_alpha   90.00000000
_cell_angle_beta   101.41513936
_cell_angle_gamma   90.00000000
_symmetry_Int_Tables_number   12
_chemical_formula_structural   Sr11B2
_chemical_formula_sum   'Sr22 B4'
_cell_volume   450.56993514
_cell_formula_units_Z   2
loop_
 _symmetry_equiv_pos_site_id
 _symmetry_equiv_pos_as_xyz
  1  'x, y, z'
  2  '-x, -y, -z'
  3  '-x, y, -z'
  4  'x, -y, z'
  5  'x+1/2, y+1/2, z'
  6  '-x+1/2, -y+1/2, -z'
  7  '-x+1/2, y+1/2, -z'
  8  'x+1/2, -y+1/2, z'
loop_
 _atom_site_type_symbol
 _atom_site_label
 _atom_site_symmetry_multiplicity
 _atom_site_fract_x
 _atom_site_fract_y
 _atom_site_fract_z
 _atom_site_occupancy
  Sr  Sr0  4  0.068862  0.500000  0.551522  1
  Sr  Sr1  4  0.087696  0.000000  0.164017  1
  Sr  Sr2  4  0.153593  0.000000  0.719556  1
  Sr  Sr3  4  0.175105  0.500000  0.121203  1
  Sr  Sr4  4  0.240296  0.500000  0.682000  1
  Sr  Sr5  2  0.000000  0.500000  0.000000  1
  B  B6  4  0.014693  0.000000  0.653786  1
