# generated using pymatgen
data_SrB9
_symmetry_space_group_name_H-M   Imm2
_cell_length_a   2.76726869
_cell_length_b   6.45771908
_cell_length_c   7.94729112
_cell_angle_alpha   90.00000000
_cell_angle_beta   90.00000000
_cell_angle_gamma   90.00000000
_symmetry_Int_Tables_number   44
_chemical_formula_structural   SrB9
_chemical_formula_sum   'Sr2 B18'
_cell_volume   142.02003022
_cell_formula_units_Z   2
loop_
 _symmetry_equiv_pos_site_id
 _symmetry_equiv_pos_as_xyz
  1  'x, y, z'
  2  '-x, -y, z'
  3  '-x, y, z'
  4  'x, -y, z'
  5  'x+1/2, y+1/2, z+1/2'
  6  '-x+1/2, -y+1/2, z+1/2'
  7  '-x+1/2, y+1/2, z+1/2'
  8  'x+1/2, -y+1/2, z+1/2'
loop_
 _atom_site_type_symbol
 _atom_site_label
 _atom_site_symmetry_multiplicity
 _atom_site_fract_x
 _atom_site_fract_y
 _atom_site_fract_z
 _atom_site_occupancy
  Sr  Sr0  2  0.000000  0.000000  0.047591  1
  B  B1  4  0.000000  0.132576  0.612230  1
  B  B2  4  0.000000  0.157115  0.405753  1
  B  B3  4  0.000000  0.269650  0.781724  1
  B  B4  4  0.000000  0.373414  0.259008  1
  B  B5  2  0.000000  0.500000  0.832491  1
