# generated using pymatgen
data_Sr6B
_symmetry_space_group_name_H-M   P-1
_cell_length_a   5.56698635
_cell_length_b   6.01435177
_cell_length_c   7.87889453
_cell_angle_alpha   108.69305363
_cell_angle_beta   92.24217586
_cell_angle_gamma   96.17825623
_symmetry_Int_Tables_number   2
_chemical_formula_structural   Sr6B
_chemical_formula_sum   'Sr12 B2'
_cell_volume   247.67248033
_cell_formula_units_Z   2
loop_
 _symmetry_equiv_pos_site_id
 _symmetry_equiv_pos_as_xyz
  1  'x, y, z'
  2  '-x, -y, -z'
loop_
 _atom_site_type_symbol
 _atom_site_label
 _atom_site_symmetry_multiplicity
 _atom_site_fract_x
 _atom_site_fract_y
 _atom_site_fract_z
 _atom_site_occupancy
  Sr  Sr0  2  0.054473  0.245594  0.071861  1
  Sr  Sr1  2  0.100541  0.936418  0.641266  1
  Sr  Sr2  2  0.228133  0.727478  0.246940  1
  Sr  Sr3  2  0.250630  0.463456  0.483079  1
  Sr  Sr4  2  0.328455  0.434546  0.829751  1
  Sr  Sr5  2  0.478187  0.101663  0.175568  1
  B  B6  2  0.440499  0.117069  0.505104  1
