# generated using pymatgen
data_Sr8B3
_symmetry_space_group_name_H-M   P-1
_cell_length_a   4.36694461
_cell_length_b   5.37308236
_cell_length_c   8.29294254
_cell_angle_alpha   79.11177006
_cell_angle_beta   81.72650181
_cell_angle_gamma   66.13059057
_symmetry_Int_Tables_number   2
_chemical_formula_structural   Sr8B3
_chemical_formula_sum   'Sr8 B3'
_cell_volume   174.24518725
_cell_formula_units_Z   1
loop_
 _symmetry_equiv_pos_site_id
 _symmetry_equiv_pos_as_xyz
  1  'x, y, z'
  2  '-x, -y, -z'
loop_
 _atom_site_type_symbol
 _atom_site_label
 _atom_site_symmetry_multiplicity
 _atom_site_fract_x
 _atom_site_fract_y
 _atom_site_fract_z
 _atom_site_occupancy
  Sr  Sr0  2  0.084426  0.144771  0.764877  1
  Sr  Sr1  2  0.234925  0.208982  0.066035  1
  Sr  Sr2  2  0.373830  0.805442  0.459358  1
  Sr  Sr3  2  0.431186  0.550333  0.800927  1
  B  B4  2  0.095763  0.322443  0.357553  1
  B  B5  1  0.000000  0.500000  0.500000  1
