# generated using pymatgen
data_Sr5B7
_symmetry_space_group_name_H-M   C2
_cell_length_a   4.64216777
_cell_length_b   9.11230401
_cell_length_c   6.56498990
_cell_angle_alpha   90.00000000
_cell_angle_beta   95.65751004
_cell_angle_gamma   90.00000000
_symmetry_Int_Tables_number   5
_chemical_formula_structural   Sr5B7
_chemical_formula_sum   'Sr10 B14'
_cell_volume   276.35190057
_cell_formula_units_Z   2
loop_
 _symmetry_equiv_pos_site_id
 _symmetry_equiv_pos_as_xyz
  1  'x, y, z'
  2  '-x, y, -z'
  3  'x+1/2, y+1/2, z'
  4  '-x+1/2, y+1/2, -z'
loop_
 _atom_site_type_symbol
 _atom_site_label
 _atom_site_symmetry_multiplicity
 _atom_site_fract_x
 _atom_site_fract_y
 _atom_site_fract_z
 _atom_site_occupancy
  Sr  Sr0  4  0.083975  0.021093  0.763212  1
  Sr  Sr1  4  0.196219  0.730349  0.855070  1
  Sr  Sr2  2  0.000000  0.541933  0.500000  1
  B  B3  4  0.099032  0.436310  0.905400  1
  B  B4  4  0.159077  0.323387  0.729949  1
  B  B5  4  0.161156  0.811210  0.464605  1
  B  B6  2  0.000000  0.248402  0.500000  1
