# generated using pymatgen
data_Sr3B10
_symmetry_space_group_name_H-M   Cm
_cell_length_a   8.77795358
_cell_length_b   3.97983229
_cell_length_c   6.77147708
_cell_angle_alpha   90.00000000
_cell_angle_beta   103.18829681
_cell_angle_gamma   90.00000000
_symmetry_Int_Tables_number   8
_chemical_formula_structural   Sr3B10
_chemical_formula_sum   'Sr6 B20'
_cell_volume   230.32093521
_cell_formula_units_Z   2
loop_
 _symmetry_equiv_pos_site_id
 _symmetry_equiv_pos_as_xyz
  1  'x, y, z'
  2  'x, -y, z'
  3  'x+1/2, y+1/2, z'
  4  'x+1/2, -y+1/2, z'
loop_
 _atom_site_type_symbol
 _atom_site_label
 _atom_site_symmetry_multiplicity
 _atom_site_fract_x
 _atom_site_fract_y
 _atom_site_fract_z
 _atom_site_occupancy
  Sr  Sr0  2  0.310256  0.500000  0.964452  1
  Sr  Sr1  2  0.364594  0.000000  0.323614  1
  Sr  Sr2  2  0.455134  0.000000  0.773764  1
  B  B3  4  0.084271  0.295465  0.138461  1
  B  B4  4  0.163385  0.281323  0.578309  1
  B  B5  2  0.006051  0.000000  0.537916  1
  B  B6  2  0.065549  0.000000  0.319112  1
  B  B7  2  0.127333  0.000000  0.986987  1
  B  B8  2  0.149582  0.000000  0.758873  1
  B  B9  2  0.172465  0.500000  0.349525  1
  B  B10  2  0.319397  0.500000  0.542276  1
