# generated using pymatgen
data_Sr3B8
_symmetry_space_group_name_H-M   P1
_cell_length_a   4.86834164
_cell_length_b   4.95900047
_cell_length_c   4.99176469
_cell_angle_alpha   68.35454149
_cell_angle_beta   78.04099233
_cell_angle_gamma   70.67541628
_symmetry_Int_Tables_number   1
_chemical_formula_structural   Sr3B8
_chemical_formula_sum   'Sr3 B8'
_cell_volume   105.20352213
_cell_formula_units_Z   1
loop_
 _symmetry_equiv_pos_site_id
 _symmetry_equiv_pos_as_xyz
  1  'x, y, z'
loop_
 _atom_site_type_symbol
 _atom_site_label
 _atom_site_symmetry_multiplicity
 _atom_site_fract_x
 _atom_site_fract_y
 _atom_site_fract_z
 _atom_site_occupancy
  Sr  Sr0  1  0.334869  0.659831  0.627889  1
  Sr  Sr1  1  0.842707  0.873897  0.244779  1
  Sr  Sr2  1  0.973586  0.212094  0.657844  1
  B  B3  1  0.017715  0.398863  0.064373  1
  B  B4  1  0.305874  0.431590  0.190037  1
  B  B5  1  0.309846  0.125555  0.055376  1
  B  B6  1  0.417475  0.769386  0.062966  1
  B  B7  1  0.485558  0.235306  0.457246  1
  B  B8  1  0.538971  0.013866  0.773047  1
  B  B9  1  0.666651  0.443370  0.190375  1
  B  B10  1  0.774829  0.674797  0.849743  1
