# generated using pymatgen
data_Sr4B9
_symmetry_space_group_name_H-M   P1
_cell_length_a   5.05701058
_cell_length_b   5.08946847
_cell_length_c   5.61718456
_cell_angle_alpha   97.95959278
_cell_angle_beta   93.37793020
_cell_angle_gamma   112.31370930
_symmetry_Int_Tables_number   1
_chemical_formula_structural   Sr4B9
_chemical_formula_sum   'Sr4 B9'
_cell_volume   131.47353032
_cell_formula_units_Z   1
loop_
 _symmetry_equiv_pos_site_id
 _symmetry_equiv_pos_as_xyz
  1  'x, y, z'
loop_
 _atom_site_type_symbol
 _atom_site_label
 _atom_site_symmetry_multiplicity
 _atom_site_fract_x
 _atom_site_fract_y
 _atom_site_fract_z
 _atom_site_occupancy
  Sr  Sr0  1  0.018070  0.211588  0.413450  1
  Sr  Sr1  1  0.200462  0.215972  0.869215  1
  Sr  Sr2  1  0.581757  0.759200  0.930112  1
  Sr  Sr3  1  0.675446  0.613521  0.443769  1
  B  B4  1  0.020456  0.637187  0.810240  1
  B  B5  1  0.126068  0.850804  0.090675  1
  B  B6  1  0.219481  0.768402  0.606230  1
  B  B7  1  0.230773  0.741737  0.321166  1
  B  B8  1  0.445785  0.074681  0.248625  1
  B  B9  1  0.488709  0.066624  0.554617  1
  B  B10  1  0.668295  0.261610  0.076208  1
  B  B11  1  0.727286  0.305566  0.792209  1
  B  B12  1  0.962012  0.518541  0.087260  1
