# generated using pymatgen
data_Sr2B7
_symmetry_space_group_name_H-M   P1
_cell_length_a   3.96739630
_cell_length_b   4.40241957
_cell_length_c   5.29659835
_cell_angle_alpha   68.64483329
_cell_angle_beta   88.30387646
_cell_angle_gamma   70.62594549
_symmetry_Int_Tables_number   1
_chemical_formula_structural   Sr2B7
_chemical_formula_sum   'Sr2 B7'
_cell_volume   80.84138531
_cell_formula_units_Z   1
loop_
 _symmetry_equiv_pos_site_id
 _symmetry_equiv_pos_as_xyz
  1  'x, y, z'
loop_
 _atom_site_type_symbol
 _atom_site_label
 _atom_site_symmetry_multiplicity
 _atom_site_fract_x
 _atom_site_fract_y
 _atom_site_fract_z
 _atom_site_occupancy
  Sr  Sr0  1  0.130818  0.594191  0.157992  1
  Sr  Sr1  1  0.346690  0.118988  0.817437  1
  B  B2  1  0.158643  0.975291  0.400373  1
  B  B3  1  0.563713  0.989879  0.347027  1
  B  B4  1  0.604338  0.583090  0.535856  1
  B  B5  1  0.734716  0.499380  0.848779  1
  B  B6  1  0.767271  0.220465  0.458560  1
  B  B7  1  0.798211  0.201555  0.141428  1
  B  B8  1  0.891695  0.773836  0.618355  1
