# generated using pymatgen
data_Sr11B2
_symmetry_space_group_name_H-M   P1
_cell_length_a   5.36785341
_cell_length_b   5.54672251
_cell_length_c   7.76519785
_cell_angle_alpha   101.61236309
_cell_angle_beta   90.74669984
_cell_angle_gamma   90.17006532
_symmetry_Int_Tables_number   1
_chemical_formula_structural   Sr11B2
_chemical_formula_sum   'Sr11 B2'
_cell_volume   226.44576910
_cell_formula_units_Z   1
loop_
 _symmetry_equiv_pos_site_id
 _symmetry_equiv_pos_as_xyz
  1  'x, y, z'
loop_
 _atom_site_type_symbol
 _atom_site_label
 _atom_site_symmetry_multiplicity
 _atom_site_fract_x
 _atom_site_fract_y
 _atom_site_fract_z
 _atom_site_occupancy
  Sr  Sr0  1  0.109595  0.590804  0.806292  1
  Sr  Sr1  1  0.140221  0.316391  0.098792  1
  Sr  Sr2  1  0.189712  0.327254  0.445982  1
  Sr  Sr3  1  0.242384  0.842827  0.153637  1
  Sr  Sr4  1  0.255409  0.841692  0.510973  1
  Sr  Sr5  1  0.610179  0.412198  0.040423  1
  Sr  Sr6  1  0.613090  0.640157  0.726534  1
  Sr  Sr7  1  0.673706  0.176431  0.452214  1
  Sr  Sr8  1  0.731994  0.936273  0.092052  1
  Sr  Sr9  1  0.764923  0.642831  0.371914  1
  Sr  Sr10  1  0.886734  0.080643  0.757029  1
  B  B11  1  0.362727  0.014036  0.865579  1
  B  B12  1  0.392448  0.211655  0.745049  1
