# generated using pymatgen
data_SrB7
_symmetry_space_group_name_H-M   Pmmn
_cell_length_a   4.68851791
_cell_length_b   5.77052995
_cell_length_c   4.21136419
_cell_angle_alpha   90.00000000
_cell_angle_beta   90.00000000
_cell_angle_gamma   90.00000000
_symmetry_Int_Tables_number   59
_chemical_formula_structural   SrB7
_chemical_formula_sum   'Sr2 B14'
_cell_volume   113.93943963
_cell_formula_units_Z   2
loop_
 _symmetry_equiv_pos_site_id
 _symmetry_equiv_pos_as_xyz
  1  'x, y, z'
  2  '-x, -y, z'
  3  'x+1/2, -y+1/2, -z'
  4  '-x+1/2, y+1/2, -z'
  5  '-x+1/2, -y+1/2, -z'
  6  'x+1/2, y+1/2, -z'
  7  '-x, y, z'
  8  'x, -y, z'
loop_
 _atom_site_type_symbol
 _atom_site_label
 _atom_site_symmetry_multiplicity
 _atom_site_fract_x
 _atom_site_fract_y
 _atom_site_fract_z
 _atom_site_occupancy
  Sr  Sr0  2  0.000000  0.500000  0.378074  1
  B  B1  8  0.208147  0.143125  0.141773  1
  B  B2  4  0.000000  0.173875  0.797436  1
  B  B3  2  0.000000  0.000000  0.433948  1
