# generated using pymatgen
data_Sr14B
_symmetry_space_group_name_H-M   P1
_cell_length_a   5.43739674
_cell_length_b   5.49812453
_cell_length_c   9.56923622
_cell_angle_alpha   93.97425719
_cell_angle_beta   100.27963126
_cell_angle_gamma   94.02162408
_symmetry_Int_Tables_number   1
_chemical_formula_structural   Sr14B
_chemical_formula_sum   'Sr14 B1'
_cell_volume   279.81450095
_cell_formula_units_Z   1
loop_
 _symmetry_equiv_pos_site_id
 _symmetry_equiv_pos_as_xyz
  1  'x, y, z'
loop_
 _atom_site_type_symbol
 _atom_site_label
 _atom_site_symmetry_multiplicity
 _atom_site_fract_x
 _atom_site_fract_y
 _atom_site_fract_z
 _atom_site_occupancy
  Sr  Sr0  1  0.098456  0.979602  0.515263  1
  Sr  Sr1  1  0.103519  0.781183  0.781267  1
  Sr  Sr2  1  0.241346  0.289413  0.786385  1
  Sr  Sr3  1  0.271565  0.881987  0.187257  1
  Sr  Sr4  1  0.400016  0.492341  0.360823  1
  Sr  Sr5  1  0.443876  0.312161  0.072955  1
  Sr  Sr6  1  0.549332  0.611066  0.658631  1
  Sr  Sr7  1  0.558953  0.848456  0.966192  1
  Sr  Sr8  1  0.567920  0.054949  0.456766  1
  Sr  Sr9  1  0.701113  0.136218  0.752508  1
  Sr  Sr10  1  0.798824  0.772643  0.247792  1
  Sr  Sr11  1  0.921440  0.507465  0.976487  1
  Sr  Sr12  1  0.939971  0.266843  0.231983  1
  Sr  Sr13  1  0.962664  0.483069  0.514255  1
  B  B14  1  0.008957  0.044635  0.985186  1
