# generated using pymatgen
data_Sr3B5
_symmetry_space_group_name_H-M   P1
_cell_length_a   4.78954939
_cell_length_b   4.89013193
_cell_length_c   8.12854034
_cell_angle_alpha   78.63837176
_cell_angle_beta   79.15249393
_cell_angle_gamma   71.29319628
_symmetry_Int_Tables_number   1
_chemical_formula_structural   Sr3B5
_chemical_formula_sum   'Sr6 B10'
_cell_volume   175.18219878
_cell_formula_units_Z   2
loop_
 _symmetry_equiv_pos_site_id
 _symmetry_equiv_pos_as_xyz
  1  'x, y, z'
loop_
 _atom_site_type_symbol
 _atom_site_label
 _atom_site_symmetry_multiplicity
 _atom_site_fract_x
 _atom_site_fract_y
 _atom_site_fract_z
 _atom_site_occupancy
  Sr  Sr0  1  0.200891  0.507186  0.054989  1
  Sr  Sr1  1  0.210730  0.980939  0.825349  1
  Sr  Sr2  1  0.419756  0.664931  0.521937  1
  Sr  Sr3  1  0.623163  0.271010  0.811131  1
  Sr  Sr4  1  0.684048  0.289598  0.211559  1
  Sr  Sr5  1  0.923986  0.728753  0.329764  1
  B  B6  1  0.003038  0.435886  0.606382  1
  B  B7  1  0.049861  0.532316  0.777521  1
  B  B8  1  0.183990  0.144140  0.329460  1
  B  B9  1  0.286914  0.228043  0.490985  1
  B  B10  1  0.349743  0.939582  0.189315  1
  B  B11  1  0.618715  0.842738  0.052038  1
  B  B12  1  0.626508  0.076986  0.546925  1
  B  B13  1  0.752061  0.696662  0.889252  1
  B  B14  1  0.803486  0.777519  0.664885  1
  B  B15  1  0.933968  0.184477  0.508125  1
