# generated using pymatgen
data_Sr3B4
_symmetry_space_group_name_H-M   Cm
_cell_length_a   5.76488983
_cell_length_b   7.85851384
_cell_length_c   7.66323970
_cell_angle_alpha   90.00000000
_cell_angle_beta   110.38267779
_cell_angle_gamma   90.00000000
_symmetry_Int_Tables_number   8
_chemical_formula_structural   Sr3B4
_chemical_formula_sum   'Sr12 B16'
_cell_volume   325.43399956
_cell_formula_units_Z   4
loop_
 _symmetry_equiv_pos_site_id
 _symmetry_equiv_pos_as_xyz
  1  'x, y, z'
  2  'x, -y, z'
  3  'x+1/2, y+1/2, z'
  4  'x+1/2, -y+1/2, z'
loop_
 _atom_site_type_symbol
 _atom_site_label
 _atom_site_symmetry_multiplicity
 _atom_site_fract_x
 _atom_site_fract_y
 _atom_site_fract_z
 _atom_site_occupancy
  Sr  Sr0  4  0.027752  0.187102  0.912913  1
  Sr  Sr1  4  0.367727  0.177380  0.538990  1
  Sr  Sr2  4  0.369970  0.326898  0.213202  1
  B  B3  2  0.043773  0.500000  0.285104  1
  B  B4  2  0.046350  0.000000  0.651578  1
  B  B5  2  0.136169  0.500000  0.836539  1
  B  B6  2  0.247375  0.000000  0.212218  1
  B  B7  2  0.268032  0.500000  0.679924  1
  B  B8  2  0.270004  0.500000  0.474975  1
  B  B9  2  0.337685  0.000000  0.825189  1
  B  B10  2  0.410574  0.000000  0.059693  1
