# generated using pymatgen
data_Sr4B7
_symmetry_space_group_name_H-M   P-1
_cell_length_a   4.80722242
_cell_length_b   4.83162979
_cell_length_c   5.51183558
_cell_angle_alpha   90.21217970
_cell_angle_beta   101.96727507
_cell_angle_gamma   106.05120465
_symmetry_Int_Tables_number   2
_chemical_formula_structural   Sr4B7
_chemical_formula_sum   'Sr4 B7'
_cell_volume   120.10307447
_cell_formula_units_Z   1
loop_
 _symmetry_equiv_pos_site_id
 _symmetry_equiv_pos_as_xyz
  1  'x, y, z'
  2  '-x, -y, -z'
loop_
 _atom_site_type_symbol
 _atom_site_label
 _atom_site_symmetry_multiplicity
 _atom_site_fract_x
 _atom_site_fract_y
 _atom_site_fract_z
 _atom_site_occupancy
  Sr  Sr0  2  0.234994  0.080030  0.719492  1
  Sr  Sr1  2  0.396690  0.277516  0.228242  1
  B  B2  2  0.053648  0.527595  0.802987  1
  B  B3  2  0.181868  0.722812  0.056732  1
  B  B4  2  0.230955  0.725189  0.351452  1
  B  B5  1  0.000000  0.500000  0.500000  1
