# generated using pymatgen
data_Sr6B5
_symmetry_space_group_name_H-M   C2/m
_cell_length_a   9.09774283
_cell_length_b   3.01202592
_cell_length_c   10.55129103
_cell_angle_alpha   90.00000000
_cell_angle_beta   96.06725231
_cell_angle_gamma   90.00000000
_symmetry_Int_Tables_number   12
_chemical_formula_structural   Sr6B5
_chemical_formula_sum   'Sr12 B10'
_cell_volume   287.51362600
_cell_formula_units_Z   2
loop_
 _symmetry_equiv_pos_site_id
 _symmetry_equiv_pos_as_xyz
  1  'x, y, z'
  2  '-x, -y, -z'
  3  '-x, y, -z'
  4  'x, -y, z'
  5  'x+1/2, y+1/2, z'
  6  '-x+1/2, -y+1/2, -z'
  7  '-x+1/2, y+1/2, -z'
  8  'x+1/2, -y+1/2, z'
loop_
 _atom_site_type_symbol
 _atom_site_label
 _atom_site_symmetry_multiplicity
 _atom_site_fract_x
 _atom_site_fract_y
 _atom_site_fract_z
 _atom_site_occupancy
  Sr  Sr0  4  0.089800  0.000000  0.702624  1
  Sr  Sr1  4  0.122106  0.500000  0.937756  1
  Sr  Sr2  4  0.194258  0.000000  0.397201  1
  B  B3  4  0.124917  0.000000  0.149342  1
  B  B4  4  0.132092  0.500000  0.189653  1
  B  B5  2  0.000000  0.500000  0.500000  1
