# generated using pymatgen
data_SrB14
_symmetry_space_group_name_H-M   P1
_cell_length_a   2.85329578
_cell_length_b   5.50321338
_cell_length_c   6.73649220
_cell_angle_alpha   80.24705874
_cell_angle_beta   81.31585001
_cell_angle_gamma   75.85125669
_symmetry_Int_Tables_number   1
_chemical_formula_structural   SrB14
_chemical_formula_sum   'Sr1 B14'
_cell_volume   100.42039787
_cell_formula_units_Z   1
loop_
 _symmetry_equiv_pos_site_id
 _symmetry_equiv_pos_as_xyz
  1  'x, y, z'
loop_
 _atom_site_type_symbol
 _atom_site_label
 _atom_site_symmetry_multiplicity
 _atom_site_fract_x
 _atom_site_fract_y
 _atom_site_fract_z
 _atom_site_occupancy
  Sr  Sr0  1  0.617283  0.687243  0.857974  1
  B  B1  1  0.009203  0.664756  0.211223  1
  B  B2  1  0.023695  0.056344  0.631168  1
  B  B3  1  0.059226  0.357287  0.390309  1
  B  B4  1  0.175952  0.393080  0.129187  1
  B  B5  1  0.190603  0.802820  0.511736  1
  B  B6  1  0.302812  0.488290  0.578179  1
  B  B7  1  0.406120  0.217223  0.738865  1
  B  B8  1  0.416937  0.838249  0.254179  1
  B  B9  1  0.473919  0.136044  0.264554  1
  B  B10  1  0.581280  0.210437  0.486850  1
  B  B11  1  0.761891  0.274090  0.061051  1
  B  B12  1  0.770832  0.644831  0.465528  1
  B  B13  1  0.900543  0.960898  0.106328  1
  B  B14  1  0.905213  0.120100  0.866537  1
