# generated using pymatgen
data_Sr5B6
_symmetry_space_group_name_H-M   Cm
_cell_length_a   8.21426996
_cell_length_b   4.11736022
_cell_length_c   7.92952868
_cell_angle_alpha   90.00000000
_cell_angle_beta   95.47944803
_cell_angle_gamma   90.00000000
_symmetry_Int_Tables_number   8
_chemical_formula_structural   Sr5B6
_chemical_formula_sum   'Sr10 B12'
_cell_volume   266.95997929
_cell_formula_units_Z   2
loop_
 _symmetry_equiv_pos_site_id
 _symmetry_equiv_pos_as_xyz
  1  'x, y, z'
  2  'x, -y, z'
  3  'x+1/2, y+1/2, z'
  4  'x+1/2, -y+1/2, z'
loop_
 _atom_site_type_symbol
 _atom_site_label
 _atom_site_symmetry_multiplicity
 _atom_site_fract_x
 _atom_site_fract_y
 _atom_site_fract_z
 _atom_site_occupancy
  Sr  Sr0  2  0.023357  0.000000  0.466097  1
  Sr  Sr1  2  0.109781  0.000000  0.839210  1
  Sr  Sr2  2  0.144038  0.500000  0.139553  1
  Sr  Sr3  2  0.331720  0.000000  0.289535  1
  Sr  Sr4  2  0.410814  0.000000  0.681355  1
  B  B5  4  0.378089  0.200688  0.990213  1
  B  B6  2  0.198111  0.500000  0.474537  1
  B  B7  2  0.230591  0.500000  0.665857  1
  B  B8  2  0.298367  0.500000  0.861495  1
  B  B9  2  0.463144  0.500000  0.119677  1
