# generated using pymatgen
data_Sr16B
_symmetry_space_group_name_H-M   Cm
_cell_length_a   44.18906777
_cell_length_b   4.60295240
_cell_length_c   3.13655257
_cell_angle_alpha   90.00000000
_cell_angle_beta   93.96530208
_cell_angle_gamma   90.00000000
_symmetry_Int_Tables_number   8
_chemical_formula_structural   Sr16B
_chemical_formula_sum   'Sr32 B2'
_cell_volume   636.44810003
_cell_formula_units_Z   2
loop_
 _symmetry_equiv_pos_site_id
 _symmetry_equiv_pos_as_xyz
  1  'x, y, z'
  2  'x, -y, z'
  3  'x+1/2, y+1/2, z'
  4  'x+1/2, -y+1/2, z'
loop_
 _atom_site_type_symbol
 _atom_site_label
 _atom_site_symmetry_multiplicity
 _atom_site_fract_x
 _atom_site_fract_y
 _atom_site_fract_z
 _atom_site_occupancy
  Sr  Sr0  2  0.008643  0.000000  0.255639  1
  Sr  Sr1  2  0.030313  0.500000  0.923695  1
  Sr  Sr2  2  0.071636  0.000000  0.111348  1
  Sr  Sr3  2  0.091498  0.500000  0.622457  1
  Sr  Sr4  2  0.131757  0.000000  0.683177  1
  Sr  Sr5  2  0.152131  0.500000  0.200906  1
  Sr  Sr6  2  0.192379  0.000000  0.239233  1
  Sr  Sr7  2  0.213032  0.500000  0.760042  1
  Sr  Sr8  2  0.253068  0.000000  0.771980  1
  Sr  Sr9  2  0.273801  0.500000  0.286081  1
  Sr  Sr10  2  0.314275  0.000000  0.305078  1
  Sr  Sr11  2  0.334358  0.500000  0.813789  1
  Sr  Sr12  2  0.375166  0.000000  0.950810  1
  Sr  Sr13  2  0.394803  0.500000  0.465335  1
  Sr  Sr14  2  0.438276  0.000000  0.023905  1
  Sr  Sr15  2  0.458004  0.500000  0.693223  1
  B  B16  2  0.484332  0.000000  0.484530  1
