# generated using pymatgen
data_Sr5B
_symmetry_space_group_name_H-M   P-1
_cell_length_a   4.43009953
_cell_length_b   6.51524999
_cell_length_c   7.98463615
_cell_angle_alpha   110.98789093
_cell_angle_beta   100.41164177
_cell_angle_gamma   97.06513324
_symmetry_Int_Tables_number   2
_chemical_formula_structural   Sr5B
_chemical_formula_sum   'Sr10 B2'
_cell_volume   207.16016102
_cell_formula_units_Z   2
loop_
 _symmetry_equiv_pos_site_id
 _symmetry_equiv_pos_as_xyz
  1  'x, y, z'
  2  '-x, -y, -z'
loop_
 _atom_site_type_symbol
 _atom_site_label
 _atom_site_symmetry_multiplicity
 _atom_site_fract_x
 _atom_site_fract_y
 _atom_site_fract_z
 _atom_site_occupancy
  Sr  Sr0  2  0.167561  0.441805  0.625561  1
  Sr  Sr1  2  0.199914  0.861223  0.878866  1
  Sr  Sr2  2  0.243697  0.316270  0.959539  1
  Sr  Sr3  2  0.316046  0.738673  0.280161  1
  Sr  Sr4  2  0.381001  0.178519  0.347989  1
  B  B5  2  0.121784  0.009429  0.591280  1
