# generated using pymatgen
data_Sr16B
_symmetry_space_group_name_H-M   P1
_cell_length_a   5.35231413
_cell_length_b   6.75395822
_cell_length_c   9.52756940
_cell_angle_alpha   101.11500670
_cell_angle_beta   104.92135970
_cell_angle_gamma   98.76480931
_symmetry_Int_Tables_number   1
_chemical_formula_structural   Sr16B
_chemical_formula_sum   'Sr16 B1'
_cell_volume   319.06038616
_cell_formula_units_Z   1
loop_
 _symmetry_equiv_pos_site_id
 _symmetry_equiv_pos_as_xyz
  1  'x, y, z'
loop_
 _atom_site_type_symbol
 _atom_site_label
 _atom_site_symmetry_multiplicity
 _atom_site_fract_x
 _atom_site_fract_y
 _atom_site_fract_z
 _atom_site_occupancy
  Sr  Sr0  1  0.045072  0.459620  0.677227  1
  Sr  Sr1  1  0.073295  0.567290  0.046162  1
  Sr  Sr2  1  0.079991  0.502805  0.351709  1
  Sr  Sr3  1  0.278192  0.901136  0.917823  1
  Sr  Sr4  1  0.290865  0.892408  0.318767  1
  Sr  Sr5  1  0.299966  0.215421  0.171511  1
  Sr  Sr6  1  0.333709  0.819441  0.624198  1
  Sr  Sr7  1  0.362286  0.222408  0.572554  1
  Sr  Sr8  1  0.390621  0.326631  0.899153  1
  Sr  Sr9  1  0.624682  0.500344  0.451271  1
  Sr  Sr10  1  0.632406  0.647652  0.181160  1
  Sr  Sr11  1  0.679341  0.620754  0.793895  1
  Sr  Sr12  1  0.806964  0.104201  0.345378  1
  Sr  Sr13  1  0.807112  0.942599  0.043800  1
  Sr  Sr14  1  0.816472  0.164467  0.825843  1
  Sr  Sr15  1  0.848665  0.913228  0.572649  1
  B  B16  1  0.752268  0.287036  0.110999  1
