# generated using pymatgen
data_Sr3B8
_symmetry_space_group_name_H-M   C2/m
_cell_length_a   7.84639575
_cell_length_b   4.31691529
_cell_length_c   7.09327349
_cell_angle_alpha   90.00000000
_cell_angle_beta   121.38759824
_cell_angle_gamma   90.00000000
_symmetry_Int_Tables_number   12
_chemical_formula_structural   Sr3B8
_chemical_formula_sum   'Sr6 B16'
_cell_volume   205.10543967
_cell_formula_units_Z   2
loop_
 _symmetry_equiv_pos_site_id
 _symmetry_equiv_pos_as_xyz
  1  'x, y, z'
  2  '-x, -y, -z'
  3  '-x, y, -z'
  4  'x, -y, z'
  5  'x+1/2, y+1/2, z'
  6  '-x+1/2, -y+1/2, -z'
  7  '-x+1/2, y+1/2, -z'
  8  'x+1/2, -y+1/2, z'
loop_
 _atom_site_type_symbol
 _atom_site_label
 _atom_site_symmetry_multiplicity
 _atom_site_fract_x
 _atom_site_fract_y
 _atom_site_fract_z
 _atom_site_occupancy
  Sr  Sr0  4  0.237971  0.500000  0.803824  1
  Sr  Sr1  2  0.000000  0.500000  0.000000  1
  B  B2  8  0.127037  0.309687  0.407331  1
  B  B3  4  0.030461  0.000000  0.715530  1
  B  B4  4  0.171777  0.000000  0.580336  1
