# generated using pymatgen
data_Sr18B
_symmetry_space_group_name_H-M   P1
_cell_length_a   3.00734356
_cell_length_b   5.42523504
_cell_length_c   23.05966052
_cell_angle_alpha   84.07852007
_cell_angle_beta   89.94739505
_cell_angle_gamma   73.93833469
_symmetry_Int_Tables_number   1
_chemical_formula_structural   Sr18B
_chemical_formula_sum   'Sr18 B1'
_cell_volume   359.46522748
_cell_formula_units_Z   1
loop_
 _symmetry_equiv_pos_site_id
 _symmetry_equiv_pos_as_xyz
  1  'x, y, z'
loop_
 _atom_site_type_symbol
 _atom_site_label
 _atom_site_symmetry_multiplicity
 _atom_site_fract_x
 _atom_site_fract_y
 _atom_site_fract_z
 _atom_site_occupancy
  Sr  Sr0  1  0.152663  0.997402  0.982354  1
  Sr  Sr1  1  0.163936  0.737929  0.307812  1
  Sr  Sr2  1  0.174156  0.517928  0.530101  1
  Sr  Sr3  1  0.263923  0.758337  0.851543  1
  Sr  Sr4  1  0.286250  0.590238  0.186922  1
  Sr  Sr5  1  0.301987  0.677617  0.728903  1
  Sr  Sr6  1  0.384393  0.004538  0.512852  1
  Sr  Sr7  1  0.498679  0.999405  0.398483  1
  Sr  Sr8  1  0.530486  0.053440  0.203891  1
  Sr  Sr9  1  0.541260  0.217346  0.879977  1
  Sr  Sr10  1  0.566691  0.123180  0.085885  1
  Sr  Sr11  1  0.570203  0.137673  0.758271  1
  Sr  Sr12  1  0.669150  0.915043  0.626283  1
  Sr  Sr13  1  0.744003  0.472538  0.420036  1
  Sr  Sr14  1  0.819407  0.599261  0.083324  1
  Sr  Sr15  1  0.878942  0.532043  0.967083  1
  Sr  Sr16  1  0.881630  0.285710  0.297302  1
  Sr  Sr17  1  0.912098  0.369767  0.641885  1
  B  B18  1  0.918299  0.449759  0.804081  1
