# generated using pymatgen
data_Sr5B
_symmetry_space_group_name_H-M   Cm
_cell_length_a   16.52486954
_cell_length_b   2.97541128
_cell_length_c   10.93604509
_cell_angle_alpha   90.00000000
_cell_angle_beta   128.96382686
_cell_angle_gamma   90.00000000
_symmetry_Int_Tables_number   8
_chemical_formula_structural   Sr5B
_chemical_formula_sum   'Sr20 B4'
_cell_volume   418.09003980
_cell_formula_units_Z   4
loop_
 _symmetry_equiv_pos_site_id
 _symmetry_equiv_pos_as_xyz
  1  'x, y, z'
  2  'x, -y, z'
  3  'x+1/2, y+1/2, z'
  4  'x+1/2, -y+1/2, z'
loop_
 _atom_site_type_symbol
 _atom_site_label
 _atom_site_symmetry_multiplicity
 _atom_site_fract_x
 _atom_site_fract_y
 _atom_site_fract_z
 _atom_site_occupancy
  Sr  Sr0  2  0.000380  0.000000  0.968761  1
  Sr  Sr1  2  0.049979  0.500000  0.432190  1
  Sr  Sr2  2  0.105133  0.000000  0.712161  1
  Sr  Sr3  2  0.205124  0.000000  0.216630  1
  Sr  Sr4  2  0.209664  0.500000  0.000388  1
  Sr  Sr5  2  0.240612  0.500000  0.499789  1
  Sr  Sr6  2  0.291216  0.000000  0.782602  1
  Sr  Sr7  2  0.388773  0.500000  0.405027  1
  Sr  Sr8  2  0.390835  0.000000  0.110611  1
  Sr  Sr9  2  0.448345  0.000000  0.704474  1
  B  B10  2  0.069023  0.000000  0.258005  1
  B  B11  2  0.076267  0.500000  0.215928  1
