# generated using pymatgen
data_Sr7B
_symmetry_space_group_name_H-M   P-1
_cell_length_a   5.34723921
_cell_length_b   5.61830501
_cell_length_c   9.56556826
_cell_angle_alpha   89.14685856
_cell_angle_beta   86.92577619
_cell_angle_gamma   83.98550777
_symmetry_Int_Tables_number   2
_chemical_formula_structural   Sr7B
_chemical_formula_sum   'Sr14 B2'
_cell_volume   285.36724504
_cell_formula_units_Z   2
loop_
 _symmetry_equiv_pos_site_id
 _symmetry_equiv_pos_as_xyz
  1  'x, y, z'
  2  '-x, -y, -z'
loop_
 _atom_site_type_symbol
 _atom_site_label
 _atom_site_symmetry_multiplicity
 _atom_site_fract_x
 _atom_site_fract_y
 _atom_site_fract_z
 _atom_site_occupancy
  Sr  Sr0  2  0.000914  0.875270  0.325289  1
  Sr  Sr1  2  0.070671  0.326585  0.405928  1
  Sr  Sr2  2  0.106847  0.502034  0.136962  1
  Sr  Sr3  2  0.205237  0.883126  0.929697  1
  Sr  Sr4  2  0.412152  0.295085  0.904057  1
  Sr  Sr5  2  0.423708  0.699476  0.674908  1
  Sr  Sr6  2  0.492304  0.799287  0.387296  1
  B  B7  2  0.295688  0.080776  0.166863  1
