# generated using pymatgen
data_Sr7B
_symmetry_space_group_name_H-M   Pm
_cell_length_a   7.57895861
_cell_length_b   2.88360864
_cell_length_c   13.43119631
_cell_angle_alpha   90.00000000
_cell_angle_beta   101.38992812
_cell_angle_gamma   90.00000000
_symmetry_Int_Tables_number   6
_chemical_formula_structural   Sr7B
_chemical_formula_sum   'Sr14 B2'
_cell_volume   287.75452958
_cell_formula_units_Z   2
loop_
 _symmetry_equiv_pos_site_id
 _symmetry_equiv_pos_as_xyz
  1  'x, y, z'
  2  'x, -y, z'
loop_
 _atom_site_type_symbol
 _atom_site_label
 _atom_site_symmetry_multiplicity
 _atom_site_fract_x
 _atom_site_fract_y
 _atom_site_fract_z
 _atom_site_occupancy
  Sr  Sr0  1  0.152632  0.000000  0.962863  1
  Sr  Sr1  1  0.177714  0.500000  0.377517  1
  Sr  Sr2  1  0.197067  0.500000  0.175307  1
  Sr  Sr3  1  0.261145  0.500000  0.794573  1
  Sr  Sr4  1  0.290620  0.000000  0.587290  1
  Sr  Sr5  1  0.501619  0.000000  0.047546  1
  Sr  Sr6  1  0.521214  0.000000  0.257708  1
  Sr  Sr7  1  0.542256  0.500000  0.446329  1
  Sr  Sr8  1  0.618821  0.000000  0.855116  1
  Sr  Sr9  1  0.644157  0.000000  0.664164  1
  Sr  Sr10  1  0.841644  0.500000  0.215978  1
  Sr  Sr11  1  0.861455  0.500000  0.013478  1
  Sr  Sr12  1  0.873066  0.000000  0.438500  1
  Sr  Sr13  1  0.958255  0.500000  0.629504  1
  B  B14  1  0.899569  0.500000  0.817119  1
  B  B15  1  0.945013  0.000000  0.792993  1
