# generated using pymatgen
data_Sr4B
_symmetry_space_group_name_H-M   P1
_cell_length_a   2.97557615
_cell_length_b   7.63856107
_cell_length_c   8.00230890
_cell_angle_alpha   107.77365689
_cell_angle_beta   100.23121469
_cell_angle_gamma   90.52222089
_symmetry_Int_Tables_number   1
_chemical_formula_structural   Sr4B
_chemical_formula_sum   'Sr8 B2'
_cell_volume   170.06018630
_cell_formula_units_Z   2
loop_
 _symmetry_equiv_pos_site_id
 _symmetry_equiv_pos_as_xyz
  1  'x, y, z'
loop_
 _atom_site_type_symbol
 _atom_site_label
 _atom_site_symmetry_multiplicity
 _atom_site_fract_x
 _atom_site_fract_y
 _atom_site_fract_z
 _atom_site_occupancy
  Sr  Sr0  1  0.023733  0.975403  0.154200  1
  Sr  Sr1  1  0.208308  0.053471  0.527129  1
  Sr  Sr2  1  0.261502  0.300195  0.117730  1
  Sr  Sr3  1  0.348654  0.695203  0.859723  1
  Sr  Sr4  1  0.602845  0.742204  0.563481  1
  Sr  Sr5  1  0.724178  0.652244  0.212452  1
  Sr  Sr6  1  0.811672  0.345819  0.808167  1
  Sr  Sr7  1  0.824504  0.376959  0.457220  1
  B  B8  1  0.506754  0.043194  0.864006  1
  B  B9  1  0.988187  0.007407  0.828233  1
