# generated using pymatgen
data_Sr9B2
_symmetry_space_group_name_H-M   Amm2
_cell_length_a   4.33578880
_cell_length_b   16.17959885
_cell_length_c   5.33638197
_cell_angle_alpha   90.00000000
_cell_angle_beta   90.00000000
_cell_angle_gamma   90.00000000
_symmetry_Int_Tables_number   38
_chemical_formula_structural   Sr9B2
_chemical_formula_sum   'Sr18 B4'
_cell_volume   374.35425805
_cell_formula_units_Z   2
loop_
 _symmetry_equiv_pos_site_id
 _symmetry_equiv_pos_as_xyz
  1  'x, y, z'
  2  '-x, -y, z'
  3  '-x, y, z'
  4  'x, -y, z'
  5  'x, y+1/2, z+1/2'
  6  '-x, -y+1/2, z+1/2'
  7  '-x, y+1/2, z+1/2'
  8  'x, -y+1/2, z+1/2'
loop_
 _atom_site_type_symbol
 _atom_site_label
 _atom_site_symmetry_multiplicity
 _atom_site_fract_x
 _atom_site_fract_y
 _atom_site_fract_z
 _atom_site_occupancy
  Sr  Sr0  4  0.000000  0.108561  0.088922  1
  Sr  Sr1  4  0.000000  0.177769  0.585756  1
  Sr  Sr2  4  0.500000  0.084087  0.501175  1
  Sr  Sr3  4  0.500000  0.209690  0.980190  1
  Sr  Sr4  2  0.500000  0.000000  0.976267  1
  B  B5  2  0.000000  0.000000  0.409160  1
  B  B6  2  0.000000  0.000000  0.701033  1
