# generated using pymatgen
data_Sr10B
_symmetry_space_group_name_H-M   C2/m
_cell_length_a   10.44895593
_cell_length_b   3.13689341
_cell_length_c   12.95817605
_cell_angle_alpha   90.00000000
_cell_angle_beta   109.06004730
_cell_angle_gamma   90.00000000
_symmetry_Int_Tables_number   12
_chemical_formula_structural   Sr10B
_chemical_formula_sum   'Sr20 B2'
_cell_volume   401.44829065
_cell_formula_units_Z   2
loop_
 _symmetry_equiv_pos_site_id
 _symmetry_equiv_pos_as_xyz
  1  'x, y, z'
  2  '-x, -y, -z'
  3  '-x, y, -z'
  4  'x, -y, z'
  5  'x+1/2, y+1/2, z'
  6  '-x+1/2, -y+1/2, -z'
  7  '-x+1/2, y+1/2, -z'
  8  'x+1/2, -y+1/2, z'
loop_
 _atom_site_type_symbol
 _atom_site_label
 _atom_site_symmetry_multiplicity
 _atom_site_fract_x
 _atom_site_fract_y
 _atom_site_fract_z
 _atom_site_occupancy
  Sr  Sr0  4  0.043689  0.500000  0.361008  1
  Sr  Sr1  4  0.067068  0.000000  0.175662  1
  Sr  Sr2  4  0.134588  0.500000  0.981994  1
  Sr  Sr3  4  0.192938  0.000000  0.793498  1
  Sr  Sr4  4  0.201716  0.500000  0.583660  1
  B  B5  2  0.000000  0.000000  0.500000  1
