# generated using pymatgen
data_Sr7B5
_symmetry_space_group_name_H-M   Cm
_cell_length_a   7.92911434
_cell_length_b   4.48941949
_cell_length_c   9.61894643
_cell_angle_alpha   90.00000000
_cell_angle_beta   108.03348313
_cell_angle_gamma   90.00000000
_symmetry_Int_Tables_number   8
_chemical_formula_structural   Sr7B5
_chemical_formula_sum   'Sr14 B10'
_cell_volume   325.58632338
_cell_formula_units_Z   2
loop_
 _symmetry_equiv_pos_site_id
 _symmetry_equiv_pos_as_xyz
  1  'x, y, z'
  2  'x, -y, z'
  3  'x+1/2, y+1/2, z'
  4  'x+1/2, -y+1/2, z'
loop_
 _atom_site_type_symbol
 _atom_site_label
 _atom_site_symmetry_multiplicity
 _atom_site_fract_x
 _atom_site_fract_y
 _atom_site_fract_z
 _atom_site_occupancy
  Sr  Sr0  2  0.072793  0.000000  0.729881  1
  Sr  Sr1  2  0.181989  0.000000  0.475484  1
  Sr  Sr2  2  0.189840  0.500000  0.102133  1
  Sr  Sr3  2  0.297597  0.000000  0.997821  1
  Sr  Sr4  2  0.325828  0.500000  0.426099  1
  Sr  Sr5  2  0.434157  0.000000  0.281317  1
  Sr  Sr6  2  0.436761  0.000000  0.772201  1
  B  B7  2  0.042970  0.500000  0.547484  1
  B  B8  2  0.056029  0.000000  0.176335  1
  B  B9  2  0.227675  0.500000  0.676110  1
  B  B10  2  0.298246  0.500000  0.852786  1
  B  B11  2  0.471961  0.500000  0.995764  1
