# generated using pymatgen
data_Sr2B5
_symmetry_space_group_name_H-M   C2
_cell_length_a   4.54077310
_cell_length_b   7.81062533
_cell_length_c   7.47835681
_cell_angle_alpha   90.00000000
_cell_angle_beta   95.06829133
_cell_angle_gamma   90.00000000
_symmetry_Int_Tables_number   5
_chemical_formula_structural   Sr2B5
_chemical_formula_sum   'Sr8 B20'
_cell_volume   264.19245894
_cell_formula_units_Z   4
loop_
 _symmetry_equiv_pos_site_id
 _symmetry_equiv_pos_as_xyz
  1  'x, y, z'
  2  '-x, y, -z'
  3  'x+1/2, y+1/2, z'
  4  '-x+1/2, y+1/2, -z'
loop_
 _atom_site_type_symbol
 _atom_site_label
 _atom_site_symmetry_multiplicity
 _atom_site_fract_x
 _atom_site_fract_y
 _atom_site_fract_z
 _atom_site_occupancy
  Sr  Sr0  4  0.026468  0.680684  0.683554  1
  Sr  Sr1  4  0.037234  0.339384  0.823743  1
  B  B2  4  0.035783  0.018309  0.688848  1
  B  B3  4  0.125744  0.026115  0.916577  1
  B  B4  4  0.186202  0.949516  0.494248  1
  B  B5  2  0.000000  0.140988  0.500000  1
  B  B6  2  0.000000  0.349108  0.500000  1
  B  B7  2  0.000000  0.636454  0.000000  1
  B  B8  2  0.000000  0.840691  0.000000  1
