# generated using pymatgen
data_Sr4B3
_symmetry_space_group_name_H-M   P-1
_cell_length_a   4.55876841
_cell_length_b   5.56635505
_cell_length_c   7.67736095
_cell_angle_alpha   100.32942702
_cell_angle_beta   96.60760190
_cell_angle_gamma   92.00754279
_symmetry_Int_Tables_number   2
_chemical_formula_structural   Sr4B3
_chemical_formula_sum   'Sr8 B6'
_cell_volume   190.07897771
_cell_formula_units_Z   2
loop_
 _symmetry_equiv_pos_site_id
 _symmetry_equiv_pos_as_xyz
  1  'x, y, z'
  2  '-x, -y, -z'
loop_
 _atom_site_type_symbol
 _atom_site_label
 _atom_site_symmetry_multiplicity
 _atom_site_fract_x
 _atom_site_fract_y
 _atom_site_fract_z
 _atom_site_occupancy
  Sr  Sr0  2  0.067056  0.203483  0.339375  1
  Sr  Sr1  2  0.141514  0.300780  0.684707  1
  Sr  Sr2  2  0.313653  0.540582  0.130611  1
  Sr  Sr3  2  0.475478  0.931188  0.826617  1
  B  B4  2  0.005134  0.135126  0.980393  1
  B  B5  2  0.388242  0.882588  0.472618  1
  B  B6  2  0.393422  0.609484  0.503306  1
