# generated using pymatgen
data_Sr6B
_symmetry_space_group_name_H-M   C2/m
_cell_length_a   21.86883813
_cell_length_b   4.36119747
_cell_length_c   5.33144136
_cell_angle_alpha   90.00000000
_cell_angle_beta   102.89977698
_cell_angle_gamma   90.00000000
_symmetry_Int_Tables_number   12
_chemical_formula_structural   Sr6B
_chemical_formula_sum   'Sr24 B4'
_cell_volume   495.64955048
_cell_formula_units_Z   4
loop_
 _symmetry_equiv_pos_site_id
 _symmetry_equiv_pos_as_xyz
  1  'x, y, z'
  2  '-x, -y, -z'
  3  '-x, y, -z'
  4  'x, -y, z'
  5  'x+1/2, y+1/2, z'
  6  '-x+1/2, -y+1/2, -z'
  7  '-x+1/2, y+1/2, -z'
  8  'x+1/2, -y+1/2, z'
loop_
 _atom_site_type_symbol
 _atom_site_label
 _atom_site_symmetry_multiplicity
 _atom_site_fract_x
 _atom_site_fract_y
 _atom_site_fract_z
 _atom_site_occupancy
  Sr  Sr0  4  0.029362  0.500000  0.803379  1
  Sr  Sr1  4  0.073373  0.000000  0.622960  1
  Sr  Sr2  4  0.099330  0.500000  0.302202  1
  Sr  Sr3  4  0.159380  0.000000  0.149025  1
  Sr  Sr4  4  0.180949  0.500000  0.801660  1
  Sr  Sr5  4  0.245549  0.000000  0.679523  1
  B  B6  4  0.031763  0.000000  0.102265  1
