# generated using pymatgen
data_Sr10B
_symmetry_space_group_name_H-M   P-1
_cell_length_a   5.48361312
_cell_length_b   5.53250633
_cell_length_c   7.05240179
_cell_angle_alpha   74.51794116
_cell_angle_beta   79.40441016
_cell_angle_gamma   86.59580004
_symmetry_Int_Tables_number   2
_chemical_formula_structural   Sr10B
_chemical_formula_sum   'Sr10 B1'
_cell_volume   202.66536421
_cell_formula_units_Z   1
loop_
 _symmetry_equiv_pos_site_id
 _symmetry_equiv_pos_as_xyz
  1  'x, y, z'
  2  '-x, -y, -z'
loop_
 _atom_site_type_symbol
 _atom_site_label
 _atom_site_symmetry_multiplicity
 _atom_site_fract_x
 _atom_site_fract_y
 _atom_site_fract_z
 _atom_site_occupancy
  Sr  Sr0  2  0.105416  0.043090  0.159045  1
  Sr  Sr1  2  0.177982  0.461141  0.319579  1
  Sr  Sr2  2  0.276978  0.855430  0.515626  1
  Sr  Sr3  2  0.301807  0.334114  0.732114  1
  Sr  Sr4  2  0.400305  0.749355  0.917062  1
  B  B5  1  0.000000  0.500000  0.000000  1
