# generated using pymatgen
data_Sr12B
_symmetry_space_group_name_H-M   P1
_cell_length_a   5.45148068
_cell_length_b   6.76159832
_cell_length_c   6.89431890
_cell_angle_alpha   83.21580886
_cell_angle_beta   77.41401235
_cell_angle_gamma   78.19409666
_symmetry_Int_Tables_number   1
_chemical_formula_structural   Sr12B
_chemical_formula_sum   'Sr12 B1'
_cell_volume   242.05573313
_cell_formula_units_Z   1
loop_
 _symmetry_equiv_pos_site_id
 _symmetry_equiv_pos_as_xyz
  1  'x, y, z'
loop_
 _atom_site_type_symbol
 _atom_site_label
 _atom_site_symmetry_multiplicity
 _atom_site_fract_x
 _atom_site_fract_y
 _atom_site_fract_z
 _atom_site_occupancy
  Sr  Sr0  1  0.083007  0.009494  0.617053  1
  Sr  Sr1  1  0.099805  0.020163  0.145611  1
  Sr  Sr2  1  0.136434  0.592425  0.592472  1
  Sr  Sr3  1  0.152383  0.635512  0.982452  1
  Sr  Sr4  1  0.289624  0.317943  0.271149  1
  Sr  Sr5  1  0.352631  0.230572  0.788906  1
  Sr  Sr6  1  0.482349  0.702475  0.253882  1
  Sr  Sr7  1  0.599967  0.698300  0.726431  1
  Sr  Sr8  1  0.628666  0.012427  0.428387  1
  Sr  Sr9  1  0.710050  0.964292  0.958644  1
  Sr  Sr10  1  0.765792  0.378808  0.484093  1
  Sr  Sr11  1  0.783439  0.385287  0.000092  1
  B  B12  1  0.927623  0.700396  0.317082  1
