# generated using pymatgen
data_SrB15
_symmetry_space_group_name_H-M   Cm
_cell_length_a   5.49470503
_cell_length_b   2.76346537
_cell_length_c   13.84894995
_cell_angle_alpha   90.00000000
_cell_angle_beta   93.30843320
_cell_angle_gamma   90.00000000
_symmetry_Int_Tables_number   8
_chemical_formula_structural   SrB15
_chemical_formula_sum   'Sr2 B30'
_cell_volume   209.93789025
_cell_formula_units_Z   2
loop_
 _symmetry_equiv_pos_site_id
 _symmetry_equiv_pos_as_xyz
  1  'x, y, z'
  2  'x, -y, z'
  3  'x+1/2, y+1/2, z'
  4  'x+1/2, -y+1/2, z'
loop_
 _atom_site_type_symbol
 _atom_site_label
 _atom_site_symmetry_multiplicity
 _atom_site_fract_x
 _atom_site_fract_y
 _atom_site_fract_z
 _atom_site_occupancy
  Sr  Sr0  2  0.373504  0.000000  0.032257  1
  B  B1  2  0.004205  0.000000  0.877742  1
  B  B2  2  0.013826  0.500000  0.787824  1
  B  B3  2  0.047917  0.000000  0.178456  1
  B  B4  2  0.088375  0.000000  0.397116  1
  B  B5  2  0.093188  0.500000  0.466467  1
  B  B6  2  0.141563  0.500000  0.674868  1
  B  B7  2  0.191242  0.500000  0.887974  1
  B  B8  2  0.220336  0.000000  0.277783  1
  B  B9  2  0.235154  0.500000  0.185806  1
  B  B10  2  0.282534  0.500000  0.558077  1
  B  B11  2  0.328025  0.500000  0.773770  1
  B  B12  2  0.388023  0.000000  0.378549  1
  B  B13  2  0.413253  0.500000  0.292531  1
  B  B14  2  0.454585  0.500000  0.658640  1
  B  B15  2  0.459630  0.000000  0.573956  1
