# generated using pymatgen
data_Sr2B5
_symmetry_space_group_name_H-M   P1
_cell_length_a   4.76976732
_cell_length_b   5.06091544
_cell_length_c   6.12714316
_cell_angle_alpha   87.95689062
_cell_angle_beta   72.61180283
_cell_angle_gamma   70.49636728
_symmetry_Int_Tables_number   1
_chemical_formula_structural   Sr2B5
_chemical_formula_sum   'Sr4 B10'
_cell_volume   132.70909372
_cell_formula_units_Z   2
loop_
 _symmetry_equiv_pos_site_id
 _symmetry_equiv_pos_as_xyz
  1  'x, y, z'
loop_
 _atom_site_type_symbol
 _atom_site_label
 _atom_site_symmetry_multiplicity
 _atom_site_fract_x
 _atom_site_fract_y
 _atom_site_fract_z
 _atom_site_occupancy
  Sr  Sr0  1  0.478694  0.488471  0.897005  1
  Sr  Sr1  1  0.547884  0.861386  0.510812  1
  Sr  Sr2  1  0.879711  0.485142  0.124850  1
  Sr  Sr3  1  0.931086  0.205701  0.538273  1
  B  B4  1  0.022394  0.687321  0.689784  1
  B  B5  1  0.029421  0.931213  0.889795  1
  B  B6  1  0.076313  0.899730  0.169826  1
  B  B7  1  0.167770  0.651629  0.363840  1
  B  B8  1  0.308996  0.044138  0.900105  1
  B  B9  1  0.349313  0.442760  0.537325  1
  B  B10  1  0.365883  0.042048  0.149206  1
  B  B11  1  0.400690  0.306626  0.287358  1
  B  B12  1  0.684527  0.915683  0.876792  1
  B  B13  1  0.722436  0.053135  0.129247  1
