# generated using pymatgen
data_Sr3B8
_symmetry_space_group_name_H-M   Cm
_cell_length_a   8.43157662
_cell_length_b   4.32218989
_cell_length_c   5.65827246
_cell_angle_alpha   90.00000000
_cell_angle_beta   96.28579208
_cell_angle_gamma   90.00000000
_symmetry_Int_Tables_number   8
_chemical_formula_structural   Sr3B8
_chemical_formula_sum   'Sr6 B16'
_cell_volume   204.96404886
_cell_formula_units_Z   2
loop_
 _symmetry_equiv_pos_site_id
 _symmetry_equiv_pos_as_xyz
  1  'x, y, z'
  2  'x, -y, z'
  3  'x+1/2, y+1/2, z'
  4  'x+1/2, -y+1/2, z'
loop_
 _atom_site_type_symbol
 _atom_site_label
 _atom_site_symmetry_multiplicity
 _atom_site_fract_x
 _atom_site_fract_y
 _atom_site_fract_z
 _atom_site_occupancy
  Sr  Sr0  2  0.000922  0.000000  0.604249  1
  Sr  Sr1  2  0.106578  0.500000  0.352153  1
  Sr  Sr2  2  0.426091  0.500000  0.112280  1
  B  B3  4  0.193417  0.183509  0.991569  1
  B  B4  4  0.256721  0.305497  0.732157  1
  B  B5  2  0.096169  0.500000  0.875408  1
  B  B6  2  0.256782  0.000000  0.243763  1
  B  B7  2  0.284350  0.000000  0.532600  1
  B  B8  2  0.388946  0.000000  0.808530  1
