# generated using pymatgen
data_SrB10
_symmetry_space_group_name_H-M   C2/m
_cell_length_a   13.52707897
_cell_length_b   2.75934242
_cell_length_c   4.08759806
_cell_angle_alpha   90.00000000
_cell_angle_beta   98.26580172
_cell_angle_gamma   90.00000000
_symmetry_Int_Tables_number   12
_chemical_formula_structural   SrB10
_chemical_formula_sum   'Sr2 B20'
_cell_volume   150.98807955
_cell_formula_units_Z   2
loop_
 _symmetry_equiv_pos_site_id
 _symmetry_equiv_pos_as_xyz
  1  'x, y, z'
  2  '-x, -y, -z'
  3  '-x, y, -z'
  4  'x, -y, z'
  5  'x+1/2, y+1/2, z'
  6  '-x+1/2, -y+1/2, -z'
  7  '-x+1/2, y+1/2, -z'
  8  'x+1/2, -y+1/2, z'
loop_
 _atom_site_type_symbol
 _atom_site_label
 _atom_site_symmetry_multiplicity
 _atom_site_fract_x
 _atom_site_fract_y
 _atom_site_fract_z
 _atom_site_occupancy
  Sr  Sr0  2  0.000000  0.500000  0.000000  1
  B  B1  4  0.064362  0.000000  0.530848  1
  B  B2  4  0.140920  0.500000  0.552976  1
  B  B3  4  0.149946  0.000000  0.283820  1
  B  B4  4  0.155949  0.000000  0.873181  1
  B  B5  4  0.241784  0.500000  0.854679  1
