# generated using pymatgen
data_Sr9B
_symmetry_space_group_name_H-M   P1
_cell_length_a   5.32599542
_cell_length_b   5.46532546
_cell_length_c   7.50181009
_cell_angle_alpha   86.73637161
_cell_angle_beta   71.74581131
_cell_angle_gamma   61.67145133
_symmetry_Int_Tables_number   1
_chemical_formula_structural   Sr9B
_chemical_formula_sum   'Sr9 B1'
_cell_volume   181.43906039
_cell_formula_units_Z   1
loop_
 _symmetry_equiv_pos_site_id
 _symmetry_equiv_pos_as_xyz
  1  'x, y, z'
loop_
 _atom_site_type_symbol
 _atom_site_label
 _atom_site_symmetry_multiplicity
 _atom_site_fract_x
 _atom_site_fract_y
 _atom_site_fract_z
 _atom_site_occupancy
  Sr  Sr0  1  0.033504  0.291323  0.212570  1
  Sr  Sr1  1  0.103701  0.252626  0.768569  1
  Sr  Sr2  1  0.266300  0.664370  0.785380  1
  Sr  Sr3  1  0.280793  0.849949  0.429608  1
  Sr  Sr4  1  0.424821  0.290710  0.395882  1
  Sr  Sr5  1  0.569015  0.623671  0.042900  1
  Sr  Sr6  1  0.614004  0.093535  0.899097  1
  Sr  Sr7  1  0.773851  0.737077  0.565709  1
  Sr  Sr8  1  0.939505  0.834951  0.163829  1
  B  B9  1  0.762085  0.260124  0.573108  1
