# generated using pymatgen
data_Sr2B5
_symmetry_space_group_name_H-M   P-1
_cell_length_a   5.14544525
_cell_length_b   5.46546698
_cell_length_c   5.52739720
_cell_angle_alpha   118.77139412
_cell_angle_beta   93.36767362
_cell_angle_gamma   96.16686933
_symmetry_Int_Tables_number   2
_chemical_formula_structural   Sr2B5
_chemical_formula_sum   'Sr4 B10'
_cell_volume   134.37222412
_cell_formula_units_Z   2
loop_
 _symmetry_equiv_pos_site_id
 _symmetry_equiv_pos_as_xyz
  1  'x, y, z'
  2  '-x, -y, -z'
loop_
 _atom_site_type_symbol
 _atom_site_label
 _atom_site_symmetry_multiplicity
 _atom_site_fract_x
 _atom_site_fract_y
 _atom_site_fract_z
 _atom_site_occupancy
  Sr  Sr0  2  0.265177  0.674722  0.629449  1
  Sr  Sr1  2  0.475435  0.771194  0.166698  1
  B  B2  2  0.012900  0.912433  0.090891  1
  B  B3  2  0.017150  0.262023  0.724710  1
  B  B4  2  0.078298  0.420624  0.089186  1
  B  B5  2  0.163162  0.103579  0.425586  1
  B  B6  2  0.230902  0.195143  0.179758  1
