# generated using pymatgen
data_Sr11B4
_symmetry_space_group_name_H-M   P-1
_cell_length_a   5.25186595
_cell_length_b   5.26739754
_cell_length_c   9.22672596
_cell_angle_alpha   100.22257679
_cell_angle_beta   90.33284218
_cell_angle_gamma   107.42507652
_symmetry_Int_Tables_number   2
_chemical_formula_structural   Sr11B4
_chemical_formula_sum   'Sr11 B4'
_cell_volume   239.19294674
_cell_formula_units_Z   1
loop_
 _symmetry_equiv_pos_site_id
 _symmetry_equiv_pos_as_xyz
  1  'x, y, z'
  2  '-x, -y, -z'
loop_
 _atom_site_type_symbol
 _atom_site_label
 _atom_site_symmetry_multiplicity
 _atom_site_fract_x
 _atom_site_fract_y
 _atom_site_fract_z
 _atom_site_occupancy
  Sr  Sr0  2  0.089522  0.046573  0.722190  1
  Sr  Sr1  2  0.116331  0.581651  0.856580  1
  Sr  Sr2  2  0.386145  0.159172  0.480923  1
  Sr  Sr3  2  0.393429  0.931836  0.138722  1
  Sr  Sr4  2  0.398434  0.489247  0.265051  1
  Sr  Sr5  1  0.000000  0.500000  0.500000  1
  B  B6  2  0.120103  0.126942  0.994981  1
  B  B7  2  0.375420  0.372726  0.997715  1
