# generated using pymatgen
data_Sr6B
_symmetry_space_group_name_H-M   P1
_cell_length_a   5.32653539
_cell_length_b   5.33379449
_cell_length_c   10.33187392
_cell_angle_alpha   76.49122141
_cell_angle_beta   75.28088902
_cell_angle_gamma   60.46492338
_symmetry_Int_Tables_number   1
_chemical_formula_structural   Sr6B
_chemical_formula_sum   'Sr12 B2'
_cell_volume   244.95446864
_cell_formula_units_Z   2
loop_
 _symmetry_equiv_pos_site_id
 _symmetry_equiv_pos_as_xyz
  1  'x, y, z'
loop_
 _atom_site_type_symbol
 _atom_site_label
 _atom_site_symmetry_multiplicity
 _atom_site_fract_x
 _atom_site_fract_y
 _atom_site_fract_z
 _atom_site_occupancy
  Sr  Sr0  1  0.016962  0.565285  0.035200  1
  Sr  Sr1  1  0.273832  0.225343  0.743210  1
  Sr  Sr2  1  0.288381  0.663277  0.508688  1
  Sr  Sr3  1  0.312087  0.301164  0.344043  1
  Sr  Sr4  1  0.430808  0.634256  0.114867  1
  Sr  Sr5  1  0.518793  0.578410  0.828294  1
  Sr  Sr6  1  0.661470  0.927911  0.533699  1
  Sr  Sr7  1  0.732137  0.679822  0.292707  1
  Sr  Sr8  1  0.880785  0.310064  0.586254  1
  Sr  Sr9  1  0.915448  0.825738  0.777525  1
  Sr  Sr10  1  0.934535  0.137097  0.983490  1
  Sr  Sr11  1  0.982094  0.065893  0.268586  1
  B  B12  1  0.470188  0.101808  0.114327  1
  B  B13  1  0.489320  0.070982  0.963035  1
