# generated using pymatgen
data_Sr7B
_symmetry_space_group_name_H-M   C2/m
_cell_length_a   5.45943273
_cell_length_b   9.28246447
_cell_length_c   5.65124971
_cell_angle_alpha   90.00000000
_cell_angle_beta   94.85379392
_cell_angle_gamma   90.00000000
_symmetry_Int_Tables_number   12
_chemical_formula_structural   Sr7B
_chemical_formula_sum   'Sr14 B2'
_cell_volume   285.36129751
_cell_formula_units_Z   2
loop_
 _symmetry_equiv_pos_site_id
 _symmetry_equiv_pos_as_xyz
  1  'x, y, z'
  2  '-x, -y, -z'
  3  '-x, y, -z'
  4  'x, -y, z'
  5  'x+1/2, y+1/2, z'
  6  '-x+1/2, -y+1/2, -z'
  7  '-x+1/2, y+1/2, -z'
  8  'x+1/2, -y+1/2, z'
loop_
 _atom_site_type_symbol
 _atom_site_label
 _atom_site_symmetry_multiplicity
 _atom_site_fract_x
 _atom_site_fract_y
 _atom_site_fract_z
 _atom_site_occupancy
  Sr  Sr0  8  0.196015  0.298161  0.265998  1
  Sr  Sr1  4  0.249032  0.500000  0.907699  1
  Sr  Sr2  2  0.000000  0.000000  0.500000  1
  B  B3  2  0.000000  0.500000  0.500000  1
