# generated using pymatgen
data_Sr10B3
_symmetry_space_group_name_H-M   P1
_cell_length_a   5.15670455
_cell_length_b   6.37479103
_cell_length_c   6.87231367
_cell_angle_alpha   79.23416140
_cell_angle_beta   74.74504599
_cell_angle_gamma   78.86275529
_symmetry_Int_Tables_number   1
_chemical_formula_structural   Sr10B3
_chemical_formula_sum   'Sr10 B3'
_cell_volume   211.63047984
_cell_formula_units_Z   1
loop_
 _symmetry_equiv_pos_site_id
 _symmetry_equiv_pos_as_xyz
  1  'x, y, z'
loop_
 _atom_site_type_symbol
 _atom_site_label
 _atom_site_symmetry_multiplicity
 _atom_site_fract_x
 _atom_site_fract_y
 _atom_site_fract_z
 _atom_site_occupancy
  Sr  Sr0  1  0.028697  0.009220  0.405701  1
  Sr  Sr1  1  0.245788  0.167643  0.642994  1
  Sr  Sr2  1  0.277660  0.631330  0.608824  1
  Sr  Sr3  1  0.352945  0.230870  0.082817  1
  Sr  Sr4  1  0.377203  0.732513  0.129592  1
  Sr  Sr5  1  0.626225  0.842930  0.730382  1
  Sr  Sr6  1  0.628195  0.341572  0.329043  1
  Sr  Sr7  1  0.727339  0.396667  0.737694  1
  Sr  Sr8  1  0.894228  0.015423  0.999195  1
  Sr  Sr9  1  0.995649  0.578163  0.003739  1
  B  B10  1  0.046348  0.482923  0.379427  1
  B  B11  1  0.584539  0.905559  0.355758  1
  B  B12  1  0.809842  0.691124  0.369945  1
