# generated using pymatgen
data_Sr4B
_symmetry_space_group_name_H-M   P-1
_cell_length_a   5.08990583
_cell_length_b   5.30137897
_cell_length_c   7.31321311
_cell_angle_alpha   79.57086277
_cell_angle_beta   73.59047501
_cell_angle_gamma   61.98775693
_symmetry_Int_Tables_number   2
_chemical_formula_structural   Sr4B
_chemical_formula_sum   'Sr8 B2'
_cell_volume   166.84887329
_cell_formula_units_Z   2
loop_
 _symmetry_equiv_pos_site_id
 _symmetry_equiv_pos_as_xyz
  1  'x, y, z'
  2  '-x, -y, -z'
loop_
 _atom_site_type_symbol
 _atom_site_label
 _atom_site_symmetry_multiplicity
 _atom_site_fract_x
 _atom_site_fract_y
 _atom_site_fract_z
 _atom_site_occupancy
  Sr  Sr0  2  0.006854  0.338976  0.675142  1
  Sr  Sr1  2  0.263935  0.032413  0.249635  1
  Sr  Sr2  2  0.301931  0.437838  0.950280  1
  Sr  Sr3  2  0.413984  0.734786  0.603038  1
  B  B4  2  0.166822  0.976870  0.944827  1
