# generated using pymatgen
data_Sr5B6
_symmetry_space_group_name_H-M   Cm
_cell_length_a   9.93279788
_cell_length_b   4.31178325
_cell_length_c   6.59841045
_cell_angle_alpha   90.00000000
_cell_angle_beta   112.92962128
_cell_angle_gamma   90.00000000
_symmetry_Int_Tables_number   8
_chemical_formula_structural   Sr5B6
_chemical_formula_sum   'Sr10 B12'
_cell_volume   260.26752611
_cell_formula_units_Z   2
loop_
 _symmetry_equiv_pos_site_id
 _symmetry_equiv_pos_as_xyz
  1  'x, y, z'
  2  'x, -y, z'
  3  'x+1/2, y+1/2, z'
  4  'x+1/2, -y+1/2, z'
loop_
 _atom_site_type_symbol
 _atom_site_label
 _atom_site_symmetry_multiplicity
 _atom_site_fract_x
 _atom_site_fract_y
 _atom_site_fract_z
 _atom_site_occupancy
  Sr  Sr0  2  0.148149  0.000000  0.355439  1
  Sr  Sr1  2  0.152553  0.500000  0.591148  1
  Sr  Sr2  2  0.184750  0.000000  0.957807  1
  Sr  Sr3  2  0.387975  0.500000  0.987919  1
  Sr  Sr4  2  0.422539  0.000000  0.732476  1
  B  B5  4  0.399987  0.195848  0.342226  1
  B  B6  2  0.111563  0.500000  0.117702  1
  B  B7  2  0.284534  0.500000  0.284816  1
  B  B8  2  0.436259  0.500000  0.526562  1
  B  B9  2  0.472372  0.000000  0.188876  1
