# generated using pymatgen
data_Sr8B7
_symmetry_space_group_name_H-M   P-1
_cell_length_a   4.64147895
_cell_length_b   6.03929096
_cell_length_c   7.97418409
_cell_angle_alpha   67.89428909
_cell_angle_beta   88.64918820
_cell_angle_gamma   70.77186302
_symmetry_Int_Tables_number   2
_chemical_formula_structural   Sr8B7
_chemical_formula_sum   'Sr8 B7'
_cell_volume   194.25125034
_cell_formula_units_Z   1
loop_
 _symmetry_equiv_pos_site_id
 _symmetry_equiv_pos_as_xyz
  1  'x, y, z'
  2  '-x, -y, -z'
loop_
 _atom_site_type_symbol
 _atom_site_label
 _atom_site_symmetry_multiplicity
 _atom_site_fract_x
 _atom_site_fract_y
 _atom_site_fract_z
 _atom_site_occupancy
  Sr  Sr0  2  0.015099  0.156648  0.164896  1
  Sr  Sr1  2  0.028618  0.659093  0.192521  1
  Sr  Sr2  2  0.462923  0.305003  0.645410  1
  Sr  Sr3  2  0.498195  0.204032  0.326600  1
  B  B4  2  0.007593  0.743755  0.503925  1
  B  B5  2  0.442859  0.405532  0.969072  1
  B  B6  2  0.453896  0.894826  0.982080  1
  B  B7  1  0.000000  0.000000  0.500000  1
