# generated using pymatgen
data_Sr5B6
_symmetry_space_group_name_H-M   P-1
_cell_length_a   3.05832159
_cell_length_b   4.77162243
_cell_length_c   9.38701344
_cell_angle_alpha   91.94905434
_cell_angle_beta   99.24425550
_cell_angle_gamma   106.31273168
_symmetry_Int_Tables_number   2
_chemical_formula_structural   Sr5B6
_chemical_formula_sum   'Sr5 B6'
_cell_volume   129.31043323
_cell_formula_units_Z   1
loop_
 _symmetry_equiv_pos_site_id
 _symmetry_equiv_pos_as_xyz
  1  'x, y, z'
  2  '-x, -y, -z'
loop_
 _atom_site_type_symbol
 _atom_site_label
 _atom_site_symmetry_multiplicity
 _atom_site_fract_x
 _atom_site_fract_y
 _atom_site_fract_z
 _atom_site_occupancy
  Sr  Sr0  2  0.054578  0.006583  0.643348  1
  Sr  Sr1  2  0.141541  0.509238  0.243484  1
  Sr  Sr2  1  0.500000  0.500000  0.000000  1
  B  B3  2  0.140099  0.953077  0.937505  1
  B  B4  2  0.278289  0.541715  0.521139  1
  B  B5  2  0.378883  0.018579  0.127061  1
