# generated using pymatgen
data_Sr11B4
_symmetry_space_group_name_H-M   P1
_cell_length_a   5.87630724
_cell_length_b   6.98548984
_cell_length_c   7.21026126
_cell_angle_alpha   114.56084360
_cell_angle_beta   111.32864213
_cell_angle_gamma   94.89855527
_symmetry_Int_Tables_number   1
_chemical_formula_structural   Sr11B4
_chemical_formula_sum   'Sr11 B4'
_cell_volume   240.78216017
_cell_formula_units_Z   1
loop_
 _symmetry_equiv_pos_site_id
 _symmetry_equiv_pos_as_xyz
  1  'x, y, z'
loop_
 _atom_site_type_symbol
 _atom_site_label
 _atom_site_symmetry_multiplicity
 _atom_site_fract_x
 _atom_site_fract_y
 _atom_site_fract_z
 _atom_site_occupancy
  Sr  Sr0  1  0.203239  0.753816  0.063845  1
  Sr  Sr1  1  0.276006  0.846852  0.559135  1
  Sr  Sr2  1  0.407368  0.281082  0.817930  1
  Sr  Sr3  1  0.427606  0.475746  0.244076  1
  Sr  Sr4  1  0.434782  0.181211  0.408062  1
  Sr  Sr5  1  0.474143  0.656953  0.808497  1
  Sr  Sr6  1  0.819975  0.876109  0.252070  1
  Sr  Sr7  1  0.833567  0.724986  0.665389  1
  Sr  Sr8  1  0.865665  0.152045  0.701753  1
  Sr  Sr9  1  0.916587  0.450966  0.116775  1
  Sr  Sr10  1  0.963523  0.333028  0.437946  1
  B  B11  1  0.023362  0.083617  0.054578  1
  B  B12  1  0.229282  0.054246  0.959232  1
  B  B13  1  0.526218  0.081485  0.060767  1
  B  B14  1  0.727636  0.047398  0.961611  1
