# generated using pymatgen
data_Sr7B2
_symmetry_space_group_name_H-M   Pm
_cell_length_a   5.47921433
_cell_length_b   4.30061464
_cell_length_c   6.34925525
_cell_angle_alpha   90.00000000
_cell_angle_beta   94.72080900
_cell_angle_gamma   90.00000000
_symmetry_Int_Tables_number   6
_chemical_formula_structural   Sr7B2
_chemical_formula_sum   'Sr7 B2'
_cell_volume   149.10622791
_cell_formula_units_Z   1
loop_
 _symmetry_equiv_pos_site_id
 _symmetry_equiv_pos_as_xyz
  1  'x, y, z'
  2  'x, -y, z'
loop_
 _atom_site_type_symbol
 _atom_site_label
 _atom_site_symmetry_multiplicity
 _atom_site_fract_x
 _atom_site_fract_y
 _atom_site_fract_z
 _atom_site_occupancy
  Sr  Sr0  1  0.154034  0.500000  0.557271  1
  Sr  Sr1  1  0.246770  0.500000  0.035872  1
  Sr  Sr2  1  0.347445  0.000000  0.382003  1
  Sr  Sr3  1  0.472215  0.000000  0.827573  1
  Sr  Sr4  1  0.691318  0.500000  0.350038  1
  Sr  Sr5  1  0.766278  0.500000  0.801391  1
  Sr  Sr6  1  0.886476  0.000000  0.135014  1
  B  B7  1  0.023497  0.000000  0.758251  1
  B  B8  1  0.836558  0.000000  0.554229  1
