# generated using pymatgen
data_Sr2B5
_symmetry_space_group_name_H-M   Cm
_cell_length_a   10.33508001
_cell_length_b   4.16284834
_cell_length_c   6.70834426
_cell_angle_alpha   90.00000000
_cell_angle_beta   104.59651475
_cell_angle_gamma   90.00000000
_symmetry_Int_Tables_number   8
_chemical_formula_structural   Sr2B5
_chemical_formula_sum   'Sr8 B20'
_cell_volume   279.30036997
_cell_formula_units_Z   4
loop_
 _symmetry_equiv_pos_site_id
 _symmetry_equiv_pos_as_xyz
  1  'x, y, z'
  2  'x, -y, z'
  3  'x+1/2, y+1/2, z'
  4  'x+1/2, -y+1/2, z'
loop_
 _atom_site_type_symbol
 _atom_site_label
 _atom_site_symmetry_multiplicity
 _atom_site_fract_x
 _atom_site_fract_y
 _atom_site_fract_z
 _atom_site_occupancy
  Sr  Sr0  2  0.080476  0.000000  0.760974  1
  Sr  Sr1  2  0.284428  0.000000  0.165416  1
  Sr  Sr2  2  0.407845  0.000000  0.850138  1
  Sr  Sr3  2  0.495070  0.500000  0.247419  1
  B  B4  4  0.206053  0.194577  0.501511  1
  B  B5  4  0.359716  0.309608  0.507768  1
  B  B6  2  0.106255  0.500000  0.500754  1
  B  B7  2  0.159032  0.500000  0.068679  1
  B  B8  2  0.206905  0.500000  0.325436  1
  B  B9  2  0.250207  0.500000  0.912386  1
  B  B10  2  0.267919  0.500000  0.678175  1
  B  B11  2  0.455052  0.000000  0.503854  1
