# generated using pymatgen
data_Sr3B4
_symmetry_space_group_name_H-M   Cm
_cell_length_a   7.95739396
_cell_length_b   4.50867011
_cell_length_c   5.07210686
_cell_angle_alpha   90.00000000
_cell_angle_beta   120.03362625
_cell_angle_gamma   90.00000000
_symmetry_Int_Tables_number   8
_chemical_formula_structural   Sr3B4
_chemical_formula_sum   'Sr6 B8'
_cell_volume   157.54009028
_cell_formula_units_Z   2
loop_
 _symmetry_equiv_pos_site_id
 _symmetry_equiv_pos_as_xyz
  1  'x, y, z'
  2  'x, -y, z'
  3  'x+1/2, y+1/2, z'
  4  'x+1/2, -y+1/2, z'
loop_
 _atom_site_type_symbol
 _atom_site_label
 _atom_site_symmetry_multiplicity
 _atom_site_fract_x
 _atom_site_fract_y
 _atom_site_fract_z
 _atom_site_occupancy
  Sr  Sr0  2  0.013259  0.500000  0.924590  1
  Sr  Sr1  2  0.313138  0.000000  0.307958  1
  Sr  Sr2  2  0.406148  0.500000  0.120631  1
  B  B3  4  0.159165  0.185943  0.639751  1
  B  B4  2  0.240206  0.500000  0.548576  1
  B  B5  2  0.492314  0.500000  0.678216  1
