# generated using pymatgen
data_Sr7B
_symmetry_space_group_name_H-M   C2
_cell_length_a   8.76490282
_cell_length_b   5.37520931
_cell_length_c   7.31447044
_cell_angle_alpha   90.00000000
_cell_angle_beta   124.25074985
_cell_angle_gamma   90.00000000
_symmetry_Int_Tables_number   5
_chemical_formula_structural   Sr7B
_chemical_formula_sum   'Sr14 B2'
_cell_volume   284.84691498
_cell_formula_units_Z   2
loop_
 _symmetry_equiv_pos_site_id
 _symmetry_equiv_pos_as_xyz
  1  'x, y, z'
  2  '-x, y, -z'
  3  '-x+z, y+1/2, z'
  4  'x-z, y+1/2, -z'
  5  'x+1/2, y+1/2, z'
  6  '-x+1/2, y+1/2, -z'
  7  '-x+z+1/2, y, z'
  8  'x-z+1/2, y, -z'
loop_
 _atom_site_type_symbol
 _atom_site_label
 _atom_site_symmetry_multiplicity
 _atom_site_fract_x
 _atom_site_fract_y
 _atom_site_fract_z
 _atom_site_occupancy
  Sr  Sr0  8  0.082510  0.665020  0.250939  1
  Sr  Sr1  4  0.197981  0.065430  0.911588  1
  Sr  Sr2  2  0.000000  0.337628  0.500000  1
  B  B3  2  0.000000  0.873734  0.500000  1
