# generated using pymatgen
data_Sr7B2
_symmetry_space_group_name_H-M   Cm
_cell_length_a   13.05329647
_cell_length_b   2.94241129
_cell_length_c   9.97962000
_cell_angle_alpha   90.00000000
_cell_angle_beta   128.65639557
_cell_angle_gamma   90.00000000
_symmetry_Int_Tables_number   8
_chemical_formula_structural   Sr7B2
_chemical_formula_sum   'Sr14 B4'
_cell_volume   299.32042514
_cell_formula_units_Z   2
loop_
 _symmetry_equiv_pos_site_id
 _symmetry_equiv_pos_as_xyz
  1  'x, y, z'
  2  'x, -y, z'
  3  'x+1/2, y+1/2, z'
  4  'x+1/2, -y+1/2, z'
loop_
 _atom_site_type_symbol
 _atom_site_label
 _atom_site_symmetry_multiplicity
 _atom_site_fract_x
 _atom_site_fract_y
 _atom_site_fract_z
 _atom_site_occupancy
  Sr  Sr0  2  0.047648  0.000000  0.747752  1
  Sr  Sr1  2  0.081633  0.000000  0.302905  1
  Sr  Sr2  2  0.236029  0.000000  0.186078  1
  Sr  Sr3  2  0.260463  0.500000  0.669863  1
  Sr  Sr4  2  0.301466  0.500000  0.995927  1
  Sr  Sr5  2  0.486736  0.000000  0.451221  1
  Sr  Sr6  2  0.486811  0.000000  0.953735  1
  B  B7  2  0.307427  0.500000  0.452173  1
  B  B8  2  0.334592  0.000000  0.524407  1
