# generated using pymatgen
data_Sr9B
_symmetry_space_group_name_H-M   P1
_cell_length_a   5.34797201
_cell_length_b   5.40671525
_cell_length_c   7.60335968
_cell_angle_alpha   70.70664098
_cell_angle_beta   75.35400449
_cell_angle_gamma   61.43355330
_symmetry_Int_Tables_number   1
_chemical_formula_structural   Sr9B
_chemical_formula_sum   'Sr9 B1'
_cell_volume   181.04594564
_cell_formula_units_Z   1
loop_
 _symmetry_equiv_pos_site_id
 _symmetry_equiv_pos_as_xyz
  1  'x, y, z'
loop_
 _atom_site_type_symbol
 _atom_site_label
 _atom_site_symmetry_multiplicity
 _atom_site_fract_x
 _atom_site_fract_y
 _atom_site_fract_z
 _atom_site_occupancy
  Sr  Sr0  1  0.127661  0.892570  0.217123  1
  Sr  Sr1  1  0.135048  0.227759  0.435773  1
  Sr  Sr2  1  0.259165  0.559831  0.585487  1
  Sr  Sr3  1  0.292235  0.880412  0.841319  1
  Sr  Sr4  1  0.432193  0.337055  0.072449  1
  Sr  Sr5  1  0.673271  0.769439  0.531401  1
  Sr  Sr6  1  0.712369  0.750107  0.173128  1
  Sr  Sr7  1  0.734870  0.111180  0.724925  1
  Sr  Sr8  1  0.946472  0.416119  0.933158  1
  B  B9  1  0.649191  0.290541  0.348047  1
