# generated using pymatgen
data_Sr6B
_symmetry_space_group_name_H-M   P-1
_cell_length_a   5.35034378
_cell_length_b   5.37649537
_cell_length_c   10.24120777
_cell_angle_alpha   82.69804189
_cell_angle_beta   75.49682833
_cell_angle_gamma   60.83078760
_symmetry_Int_Tables_number   2
_chemical_formula_structural   Sr6B
_chemical_formula_sum   'Sr12 B2'
_cell_volume   249.03799796
_cell_formula_units_Z   2
loop_
 _symmetry_equiv_pos_site_id
 _symmetry_equiv_pos_as_xyz
  1  'x, y, z'
  2  '-x, -y, -z'
loop_
 _atom_site_type_symbol
 _atom_site_label
 _atom_site_symmetry_multiplicity
 _atom_site_fract_x
 _atom_site_fract_y
 _atom_site_fract_z
 _atom_site_occupancy
  Sr  Sr0  2  0.054331  0.712298  0.738703  1
  Sr  Sr1  2  0.216768  0.499074  0.062374  1
  Sr  Sr2  2  0.271986  0.443967  0.495665  1
  Sr  Sr3  2  0.276680  0.996481  0.944202  1
  Sr  Sr4  2  0.319980  0.711450  0.253227  1
  Sr  Sr5  2  0.394947  0.001757  0.676667  1
  B  B6  2  0.152483  0.992760  0.493826  1
