# generated using pymatgen
data_Sr10B3
_symmetry_space_group_name_H-M   Cm
_cell_length_a   29.57759120
_cell_length_b   5.04341291
_cell_length_c   2.87813344
_cell_angle_alpha   90.00000000
_cell_angle_beta   93.89542885
_cell_angle_gamma   90.00000000
_symmetry_Int_Tables_number   8
_chemical_formula_structural   Sr10B3
_chemical_formula_sum   'Sr20 B6'
_cell_volume   428.34504069
_cell_formula_units_Z   2
loop_
 _symmetry_equiv_pos_site_id
 _symmetry_equiv_pos_as_xyz
  1  'x, y, z'
  2  'x, -y, z'
  3  'x+1/2, y+1/2, z'
  4  'x+1/2, -y+1/2, z'
loop_
 _atom_site_type_symbol
 _atom_site_label
 _atom_site_symmetry_multiplicity
 _atom_site_fract_x
 _atom_site_fract_y
 _atom_site_fract_z
 _atom_site_occupancy
  Sr  Sr0  2  0.035512  0.500000  0.435091  1
  Sr  Sr1  2  0.068649  0.000000  0.890621  1
  Sr  Sr2  2  0.129205  0.500000  0.521252  1
  Sr  Sr3  2  0.161192  0.000000  0.605921  1
  Sr  Sr4  2  0.253770  0.000000  0.667432  1
  Sr  Sr5  2  0.290413  0.500000  0.201250  1
  Sr  Sr6  2  0.349624  0.000000  0.386253  1
  Sr  Sr7  2  0.382350  0.500000  0.871561  1
  Sr  Sr8  2  0.440466  0.000000  0.927959  1
  Sr  Sr9  2  0.476794  0.500000  0.491005  1
  B  B10  4  0.204327  0.336416  0.130420  1
  B  B11  2  0.215291  0.500000  0.639211  1
