# generated using pymatgen
data_Sr2B9
_symmetry_space_group_name_H-M   P2/m
_cell_length_a   4.07572938
_cell_length_b   3.86510040
_cell_length_c   6.65960900
_cell_angle_alpha   90.00000000
_cell_angle_beta   107.54319450
_cell_angle_gamma   90.00000000
_symmetry_Int_Tables_number   10
_chemical_formula_structural   Sr2B9
_chemical_formula_sum   'Sr2 B9'
_cell_volume   100.03016497
_cell_formula_units_Z   1
loop_
 _symmetry_equiv_pos_site_id
 _symmetry_equiv_pos_as_xyz
  1  'x, y, z'
  2  '-x, -y, -z'
  3  '-x, y, -z'
  4  'x, -y, z'
loop_
 _atom_site_type_symbol
 _atom_site_label
 _atom_site_symmetry_multiplicity
 _atom_site_fract_x
 _atom_site_fract_y
 _atom_site_fract_z
 _atom_site_occupancy
  Sr  Sr0  2  0.370707  0.500000  0.230625  1
  B  B1  2  0.000000  0.299291  0.500000  1
  B  B2  2  0.102302  0.000000  0.689669  1
  B  B3  2  0.294287  0.000000  0.492750  1
  B  B4  2  0.305566  0.000000  0.934326  1
  B  B5  1  0.000000  0.000000  0.000000  1
