# generated using pymatgen
data_Sr7B4
_symmetry_space_group_name_H-M   P-1
_cell_length_a   5.29003839
_cell_length_b   5.34909934
_cell_length_c   6.52979781
_cell_angle_alpha   78.18147868
_cell_angle_beta   75.71093659
_cell_angle_gamma   66.34359685
_symmetry_Int_Tables_number   2
_chemical_formula_structural   Sr7B4
_chemical_formula_sum   'Sr7 B4'
_cell_volume   162.84172101
_cell_formula_units_Z   1
loop_
 _symmetry_equiv_pos_site_id
 _symmetry_equiv_pos_as_xyz
  1  'x, y, z'
  2  '-x, -y, -z'
loop_
 _atom_site_type_symbol
 _atom_site_label
 _atom_site_symmetry_multiplicity
 _atom_site_fract_x
 _atom_site_fract_y
 _atom_site_fract_z
 _atom_site_occupancy
  Sr  Sr0  2  0.031587  0.385497  0.234808  1
  Sr  Sr1  2  0.263317  0.000495  0.638316  1
  Sr  Sr2  2  0.334451  0.643430  0.357970  1
  Sr  Sr3  1  0.500000  0.000000  0.000000  1
  B  B4  2  0.080013  0.843106  0.030058  1
  B  B5  2  0.362084  0.598498  0.959418  1
