# generated using pymatgen
data_Sr2B9
_symmetry_space_group_name_H-M   Pm
_cell_length_a   4.00456830
_cell_length_b   4.99101440
_cell_length_c   4.72790338
_cell_angle_alpha   90.00000000
_cell_angle_beta   93.40281061
_cell_angle_gamma   90.00000000
_symmetry_Int_Tables_number   6
_chemical_formula_structural   Sr2B9
_chemical_formula_sum   'Sr2 B9'
_cell_volume   94.32932951
_cell_formula_units_Z   1
loop_
 _symmetry_equiv_pos_site_id
 _symmetry_equiv_pos_as_xyz
  1  'x, y, z'
  2  'x, -y, z'
loop_
 _atom_site_type_symbol
 _atom_site_label
 _atom_site_symmetry_multiplicity
 _atom_site_fract_x
 _atom_site_fract_y
 _atom_site_fract_z
 _atom_site_occupancy
  Sr  Sr0  1  0.384793  0.000000  0.896287  1
  Sr  Sr1  1  0.408058  0.500000  0.313248  1
  B  B2  2  0.876902  0.300874  0.631949  1
  B  B3  2  0.903159  0.332163  0.994276  1
  B  B4  2  0.933355  0.163169  0.282964  1
  B  B5  1  0.182735  0.500000  0.801088  1
  B  B6  1  0.597072  0.500000  0.810745  1
  B  B7  1  0.738411  0.000000  0.506325  1
