# generated using pymatgen
data_Sr5B4
_symmetry_space_group_name_H-M   P-1
_cell_length_a   4.49559331
_cell_length_b   5.35922030
_cell_length_c   5.68375467
_cell_angle_alpha   114.26929615
_cell_angle_beta   97.84622082
_cell_angle_gamma   97.78814092
_symmetry_Int_Tables_number   2
_chemical_formula_structural   Sr5B4
_chemical_formula_sum   'Sr5 B4'
_cell_volume   120.85125220
_cell_formula_units_Z   1
loop_
 _symmetry_equiv_pos_site_id
 _symmetry_equiv_pos_as_xyz
  1  'x, y, z'
  2  '-x, -y, -z'
loop_
 _atom_site_type_symbol
 _atom_site_label
 _atom_site_symmetry_multiplicity
 _atom_site_fract_x
 _atom_site_fract_y
 _atom_site_fract_z
 _atom_site_occupancy
  Sr  Sr0  2  0.290451  0.138251  0.510630  1
  Sr  Sr1  2  0.455195  0.669345  0.865398  1
  Sr  Sr2  1  0.000000  0.000000  0.000000  1
  B  B3  2  0.075388  0.590234  0.155973  1
  B  B4  2  0.110208  0.555789  0.422205  1
