# generated using pymatgen
data_Sr11B4
_symmetry_space_group_name_H-M   P-1
_cell_length_a   5.31179561
_cell_length_b   5.39616258
_cell_length_c   9.51691688
_cell_angle_alpha   77.12238178
_cell_angle_beta   81.00825831
_cell_angle_gamma   65.50709127
_symmetry_Int_Tables_number   2
_chemical_formula_structural   Sr11B4
_chemical_formula_sum   'Sr11 B4'
_cell_volume   241.36690197
_cell_formula_units_Z   1
loop_
 _symmetry_equiv_pos_site_id
 _symmetry_equiv_pos_as_xyz
  1  'x, y, z'
  2  '-x, -y, -z'
loop_
 _atom_site_type_symbol
 _atom_site_label
 _atom_site_symmetry_multiplicity
 _atom_site_fract_x
 _atom_site_fract_y
 _atom_site_fract_z
 _atom_site_occupancy
  Sr  Sr0  2  0.093408  0.405622  0.255431  1
  Sr  Sr1  2  0.241504  0.548153  0.955575  1
  Sr  Sr2  2  0.273195  0.960859  0.075432  1
  Sr  Sr3  2  0.275883  0.995960  0.750292  1
  Sr  Sr4  2  0.436120  0.630843  0.345477  1
  Sr  Sr5  1  0.000000  0.000000  0.500000  1
  B  B6  2  0.145650  0.397362  0.524656  1
  B  B7  2  0.414131  0.156479  0.475926  1
