# generated using pymatgen
data_Sr6B7
_symmetry_space_group_name_H-M   P-1
_cell_length_a   4.60163556
_cell_length_b   4.61239191
_cell_length_c   8.52024970
_cell_angle_alpha   86.28168704
_cell_angle_beta   80.85075581
_cell_angle_gamma   60.31177761
_symmetry_Int_Tables_number   2
_chemical_formula_structural   Sr6B7
_chemical_formula_sum   'Sr6 B7'
_cell_volume   155.08129681
_cell_formula_units_Z   1
loop_
 _symmetry_equiv_pos_site_id
 _symmetry_equiv_pos_as_xyz
  1  'x, y, z'
  2  '-x, -y, -z'
loop_
 _atom_site_type_symbol
 _atom_site_label
 _atom_site_symmetry_multiplicity
 _atom_site_fract_x
 _atom_site_fract_y
 _atom_site_fract_z
 _atom_site_occupancy
  Sr  Sr0  2  0.131607  0.905919  0.205901  1
  Sr  Sr1  2  0.167795  0.433996  0.831127  1
  Sr  Sr2  2  0.168156  0.652447  0.523991  1
  B  B3  2  0.456544  0.258618  0.261568  1
  B  B4  2  0.480893  0.996230  0.593180  1
  B  B5  2  0.491117  0.678068  0.938471  1
  B  B6  1  0.500000  0.000000  0.000000  1
