# generated using pymatgen
data_SrB3
_symmetry_space_group_name_H-M   C2/m
_cell_length_a   9.77190344
_cell_length_b   2.87038077
_cell_length_c   5.90142460
_cell_angle_alpha   90.00000000
_cell_angle_beta   118.76019122
_cell_angle_gamma   90.00000000
_symmetry_Int_Tables_number   12
_chemical_formula_structural   SrB3
_chemical_formula_sum   'Sr4 B12'
_cell_volume   145.11002391
_cell_formula_units_Z   4
loop_
 _symmetry_equiv_pos_site_id
 _symmetry_equiv_pos_as_xyz
  1  'x, y, z'
  2  '-x, -y, -z'
  3  '-x, y, -z'
  4  'x, -y, z'
  5  'x+1/2, y+1/2, z'
  6  '-x+1/2, -y+1/2, -z'
  7  '-x+1/2, y+1/2, -z'
  8  'x+1/2, -y+1/2, z'
loop_
 _atom_site_type_symbol
 _atom_site_label
 _atom_site_symmetry_multiplicity
 _atom_site_fract_x
 _atom_site_fract_y
 _atom_site_fract_z
 _atom_site_occupancy
  Sr  Sr0  4  0.097386  0.000000  0.258476  1
  B  B1  4  0.090994  0.500000  0.622021  1
  B  B2  4  0.174793  0.500000  0.939626  1
  B  B3  4  0.182489  0.000000  0.760747  1
