# generated using pymatgen
data_SrB4
_symmetry_space_group_name_H-M   C2/m
_cell_length_a   10.51214237
_cell_length_b   4.03817007
_cell_length_c   4.21122131
_cell_angle_alpha   90.00000000
_cell_angle_beta   104.03791278
_cell_angle_gamma   90.00000000
_symmetry_Int_Tables_number   12
_chemical_formula_structural   SrB4
_chemical_formula_sum   'Sr4 B16'
_cell_volume   173.42682450
_cell_formula_units_Z   4
loop_
 _symmetry_equiv_pos_site_id
 _symmetry_equiv_pos_as_xyz
  1  'x, y, z'
  2  '-x, -y, -z'
  3  '-x, y, -z'
  4  'x, -y, z'
  5  'x+1/2, y+1/2, z'
  6  '-x+1/2, -y+1/2, -z'
  7  '-x+1/2, y+1/2, -z'
  8  'x+1/2, -y+1/2, z'
loop_
 _atom_site_type_symbol
 _atom_site_label
 _atom_site_symmetry_multiplicity
 _atom_site_fract_x
 _atom_site_fract_y
 _atom_site_fract_z
 _atom_site_occupancy
  Sr  Sr0  4  0.195694  0.500000  0.730592  1
  B  B1  8  0.067653  0.287320  0.160018  1
  B  B2  4  0.065534  0.000000  0.842206  1
  B  B3  4  0.075045  0.000000  0.450732  1
