# generated using pymatgen
data_Sr9B7
_symmetry_space_group_name_H-M   P1
_cell_length_a   4.55203030
_cell_length_b   6.02766833
_cell_length_c   8.08745427
_cell_angle_alpha   79.99453495
_cell_angle_beta   86.72087207
_cell_angle_gamma   87.43060904
_symmetry_Int_Tables_number   1
_chemical_formula_structural   Sr9B7
_chemical_formula_sum   'Sr9 B7'
_cell_volume   218.03448532
_cell_formula_units_Z   1
loop_
 _symmetry_equiv_pos_site_id
 _symmetry_equiv_pos_as_xyz
  1  'x, y, z'
loop_
 _atom_site_type_symbol
 _atom_site_label
 _atom_site_symmetry_multiplicity
 _atom_site_fract_x
 _atom_site_fract_y
 _atom_site_fract_z
 _atom_site_occupancy
  Sr  Sr0  1  0.235085  0.873819  0.544141  1
  Sr  Sr1  1  0.244811  0.016768  0.852141  1
  Sr  Sr2  1  0.258472  0.545808  0.832653  1
  Sr  Sr3  1  0.272860  0.626902  0.186437  1
  Sr  Sr4  1  0.325170  0.350231  0.555254  1
  Sr  Sr5  1  0.728324  0.993400  0.034061  1
  Sr  Sr6  1  0.730007  0.809548  0.380837  1
  Sr  Sr7  1  0.751796  0.440281  0.018203  1
  Sr  Sr8  1  0.856905  0.316733  0.376243  1
  B  B9  1  0.166800  0.019137  0.226231  1
  B  B10  1  0.246363  0.237680  0.093034  1
  B  B11  1  0.407111  0.182130  0.274137  1
  B  B12  1  0.747328  0.787220  0.738321  1
  B  B13  1  0.754720  0.050825  0.678063  1
  B  B14  1  0.778174  0.553498  0.671134  1
  B  B15  1  0.789132  0.289400  0.728602  1
