# generated using pymatgen
data_Sr11B3
_symmetry_space_group_name_H-M   P-1
_cell_length_a   4.28203113
_cell_length_b   7.08244747
_cell_length_c   7.86070424
_cell_angle_alpha   86.39483981
_cell_angle_beta   81.79948066
_cell_angle_gamma   86.07982230
_symmetry_Int_Tables_number   2
_chemical_formula_structural   Sr11B3
_chemical_formula_sum   'Sr11 B3'
_cell_volume   235.06298876
_cell_formula_units_Z   1
loop_
 _symmetry_equiv_pos_site_id
 _symmetry_equiv_pos_as_xyz
  1  'x, y, z'
  2  '-x, -y, -z'
loop_
 _atom_site_type_symbol
 _atom_site_label
 _atom_site_symmetry_multiplicity
 _atom_site_fract_x
 _atom_site_fract_y
 _atom_site_fract_z
 _atom_site_occupancy
  Sr  Sr0  2  0.109180  0.806368  0.550381  1
  Sr  Sr1  2  0.109928  0.306812  0.731743  1
  Sr  Sr2  2  0.411787  0.442522  0.334946  1
  Sr  Sr3  2  0.458341  0.021000  0.284678  1
  Sr  Sr4  2  0.473104  0.706923  0.018092  1
  Sr  Sr5  1  0.000000  0.000000  0.000000  1
  B  B6  2  0.019888  0.659234  0.848283  1
  B  B7  1  0.000000  0.500000  0.000000  1
