# generated using pymatgen
data_SrB12
_symmetry_space_group_name_H-M   C2/m
_cell_length_a   13.72088411
_cell_length_b   4.39341603
_cell_length_c   2.92092723
_cell_angle_alpha   90.00000000
_cell_angle_beta   101.47380209
_cell_angle_gamma   90.00000000
_symmetry_Int_Tables_number   12
_chemical_formula_structural   SrB12
_chemical_formula_sum   'Sr2 B24'
_cell_volume   172.55924223
_cell_formula_units_Z   2
loop_
 _symmetry_equiv_pos_site_id
 _symmetry_equiv_pos_as_xyz
  1  'x, y, z'
  2  '-x, -y, -z'
  3  '-x, y, -z'
  4  'x, -y, z'
  5  'x+1/2, y+1/2, z'
  6  '-x+1/2, -y+1/2, -z'
  7  '-x+1/2, y+1/2, -z'
  8  'x+1/2, -y+1/2, z'
loop_
 _atom_site_type_symbol
 _atom_site_label
 _atom_site_symmetry_multiplicity
 _atom_site_fract_x
 _atom_site_fract_y
 _atom_site_fract_z
 _atom_site_occupancy
  Sr  Sr0  2  0.000000  0.000000  0.000000  1
  B  B1  8  0.150337  0.193498  0.698562  1
  B  B2  8  0.222544  0.303285  0.236210  1
  B  B3  4  0.061820  0.500000  0.516829  1
  B  B4  4  0.119800  0.500000  0.067313  1
