# generated using pymatgen
data_Sr9B
_symmetry_space_group_name_H-M   P1
_cell_length_a   5.10986793
_cell_length_b   5.33137550
_cell_length_c   7.65483316
_cell_angle_alpha   80.94627567
_cell_angle_beta   78.23050856
_cell_angle_gamma   62.44733949
_symmetry_Int_Tables_number   1
_chemical_formula_structural   Sr9B
_chemical_formula_sum   'Sr9 B1'
_cell_volume   180.52205268
_cell_formula_units_Z   1
loop_
 _symmetry_equiv_pos_site_id
 _symmetry_equiv_pos_as_xyz
  1  'x, y, z'
loop_
 _atom_site_type_symbol
 _atom_site_label
 _atom_site_symmetry_multiplicity
 _atom_site_fract_x
 _atom_site_fract_y
 _atom_site_fract_z
 _atom_site_occupancy
  Sr  Sr0  1  0.094515  0.209602  0.470015  1
  Sr  Sr1  1  0.109522  0.507110  0.930074  1
  Sr  Sr2  1  0.242250  0.616874  0.243632  1
  Sr  Sr3  1  0.502138  0.979152  0.071423  1
  Sr  Sr4  1  0.507167  0.263836  0.614241  1
  Sr  Sr5  1  0.558142  0.706648  0.780835  1
  Sr  Sr6  1  0.654521  0.750602  0.413588  1
  Sr  Sr7  1  0.823750  0.207612  0.198812  1
  Sr  Sr8  1  0.948578  0.097240  0.833704  1
  B  B9  1  0.047628  0.754906  0.588877  1
