# generated using pymatgen
data_Sr2B7
_symmetry_space_group_name_H-M   C2/m
_cell_length_a   7.94353669
_cell_length_b   4.55267112
_cell_length_c   5.73906712
_cell_angle_alpha   90.00000000
_cell_angle_beta   131.65857251
_cell_angle_gamma   90.00000000
_symmetry_Int_Tables_number   12
_chemical_formula_structural   Sr2B7
_chemical_formula_sum   'Sr4 B14'
_cell_volume   155.06409794
_cell_formula_units_Z   2
loop_
 _symmetry_equiv_pos_site_id
 _symmetry_equiv_pos_as_xyz
  1  'x, y, z'
  2  '-x, -y, -z'
  3  '-x, y, -z'
  4  'x, -y, z'
  5  'x+1/2, y+1/2, z'
  6  '-x+1/2, -y+1/2, -z'
  7  '-x+1/2, y+1/2, -z'
  8  'x+1/2, -y+1/2, z'
loop_
 _atom_site_type_symbol
 _atom_site_label
 _atom_site_symmetry_multiplicity
 _atom_site_fract_x
 _atom_site_fract_y
 _atom_site_fract_z
 _atom_site_occupancy
  Sr  Sr0  4  0.102016  0.500000  0.864618  1
  B  B1  8  0.221177  0.175243  0.341573  1
  B  B2  4  0.125420  0.000000  0.524931  1
  B  B3  2  0.000000  0.000000  0.000000  1
