# generated using pymatgen
data_Sr7B4
_symmetry_space_group_name_H-M   Amm2
_cell_length_a   8.77925896
_cell_length_b   4.41736438
_cell_length_c   8.24450485
_cell_angle_alpha   90.00000000
_cell_angle_beta   90.00000000
_cell_angle_gamma   90.00000000
_symmetry_Int_Tables_number   38
_chemical_formula_structural   Sr7B4
_chemical_formula_sum   'Sr14 B8'
_cell_volume   319.73167456
_cell_formula_units_Z   2
loop_
 _symmetry_equiv_pos_site_id
 _symmetry_equiv_pos_as_xyz
  1  'x, y, z'
  2  '-x, -y, z'
  3  '-x, y, z'
  4  'x, -y, z'
  5  'x, y+1/2, z+1/2'
  6  '-x, -y+1/2, z+1/2'
  7  '-x, y+1/2, z+1/2'
  8  'x, -y+1/2, z+1/2'
loop_
 _atom_site_type_symbol
 _atom_site_label
 _atom_site_symmetry_multiplicity
 _atom_site_fract_x
 _atom_site_fract_y
 _atom_site_fract_z
 _atom_site_occupancy
  Sr  Sr0  4  0.286480  0.000000  0.735712  1
  Sr  Sr1  4  0.330913  0.000000  0.063994  1
  Sr  Sr2  2  0.000000  0.000000  0.602580  1
  Sr  Sr3  2  0.000000  0.000000  0.935253  1
  Sr  Sr4  2  0.500000  0.000000  0.382434  1
  B  B5  4  0.093660  0.000000  0.264796  1
  B  B6  4  0.216971  0.000000  0.406923  1
