# generated using pymatgen
data_SrB6
_symmetry_space_group_name_H-M   P-1
_cell_length_a   2.95746400
_cell_length_b   5.80132922
_cell_length_c   6.89901745
_cell_angle_alpha   69.83714696
_cell_angle_beta   77.85876330
_cell_angle_gamma   75.74604995
_symmetry_Int_Tables_number   2
_chemical_formula_structural   SrB6
_chemical_formula_sum   'Sr2 B12'
_cell_volume   106.66453144
_cell_formula_units_Z   2
loop_
 _symmetry_equiv_pos_site_id
 _symmetry_equiv_pos_as_xyz
  1  'x, y, z'
  2  '-x, -y, -z'
loop_
 _atom_site_type_symbol
 _atom_site_label
 _atom_site_symmetry_multiplicity
 _atom_site_fract_x
 _atom_site_fract_y
 _atom_site_fract_z
 _atom_site_occupancy
  Sr  Sr0  2  0.360468  0.234512  0.539524  1
  B  B1  2  0.056576  0.169504  0.234753  1
  B  B2  2  0.122024  0.514397  0.779155  1
  B  B3  2  0.225035  0.952950  0.107291  1
  B  B4  2  0.268948  0.416754  0.035440  1
  B  B5  2  0.335776  0.636798  0.166960  1
  B  B6  2  0.369295  0.874007  0.887578  1
