# generated using pymatgen
data_SrB7
_symmetry_space_group_name_H-M   P-1
_cell_length_a   4.17429566
_cell_length_b   4.18348890
_cell_length_c   7.21834622
_cell_angle_alpha   85.37517990
_cell_angle_beta   77.37730142
_cell_angle_gamma   75.18739007
_symmetry_Int_Tables_number   2
_chemical_formula_structural   SrB7
_chemical_formula_sum   'Sr2 B14'
_cell_volume   118.87924903
_cell_formula_units_Z   2
loop_
 _symmetry_equiv_pos_site_id
 _symmetry_equiv_pos_as_xyz
  1  'x, y, z'
  2  '-x, -y, -z'
loop_
 _atom_site_type_symbol
 _atom_site_label
 _atom_site_symmetry_multiplicity
 _atom_site_fract_x
 _atom_site_fract_y
 _atom_site_fract_z
 _atom_site_occupancy
  Sr  Sr0  2  0.394222  0.620647  0.687754  1
  B  B1  2  0.013369  0.785178  0.222640  1
  B  B2  2  0.029112  0.317299  0.543579  1
  B  B3  2  0.151304  0.987497  0.398617  1
  B  B4  2  0.164198  0.443268  0.056023  1
  B  B5  2  0.254386  0.065680  0.162595  1
  B  B6  2  0.302494  0.097461  0.898233  1
  B  B7  2  0.388733  0.740343  0.028706  1
