# generated using pymatgen
data_SrB14
_symmetry_space_group_name_H-M   Cm
_cell_length_a   8.48587420
_cell_length_b   6.63068383
_cell_length_c   4.10326804
_cell_angle_alpha   90.00000000
_cell_angle_beta   115.14633483
_cell_angle_gamma   90.00000000
_symmetry_Int_Tables_number   8
_chemical_formula_structural   SrB14
_chemical_formula_sum   'Sr2 B28'
_cell_volume   208.99772335
_cell_formula_units_Z   2
loop_
 _symmetry_equiv_pos_site_id
 _symmetry_equiv_pos_as_xyz
  1  'x, y, z'
  2  'x, -y, z'
  3  'x+1/2, y+1/2, z'
  4  'x+1/2, -y+1/2, z'
loop_
 _atom_site_type_symbol
 _atom_site_label
 _atom_site_symmetry_multiplicity
 _atom_site_fract_x
 _atom_site_fract_y
 _atom_site_fract_z
 _atom_site_occupancy
  Sr  Sr0  2  0.489369  0.000000  0.528778  1
  B  B1  4  0.005580  0.134676  0.711307  1
  B  B2  4  0.024239  0.127714  0.325500  1
  B  B3  4  0.108772  0.265906  0.101299  1
  B  B4  4  0.230923  0.125152  0.889691  1
  B  B5  4  0.382717  0.280266  0.915442  1
  B  B6  2  0.154202  0.000000  0.154687  1
  B  B7  2  0.186404  0.500000  0.215462  1
  B  B8  2  0.323663  0.500000  0.645341  1
  B  B9  2  0.332706  0.500000  0.065231  1
