# generated using pymatgen
data_Sr5B3
_symmetry_space_group_name_H-M   C2/m
_cell_length_a   9.56381160
_cell_length_b   4.28413533
_cell_length_c   5.66442209
_cell_angle_alpha   90.00000000
_cell_angle_beta   94.38392124
_cell_angle_gamma   90.00000000
_symmetry_Int_Tables_number   12
_chemical_formula_structural   Sr5B3
_chemical_formula_sum   'Sr10 B6'
_cell_volume   231.40742939
_cell_formula_units_Z   2
loop_
 _symmetry_equiv_pos_site_id
 _symmetry_equiv_pos_as_xyz
  1  'x, y, z'
  2  '-x, -y, -z'
  3  '-x, y, -z'
  4  'x, -y, z'
  5  'x+1/2, y+1/2, z'
  6  '-x+1/2, -y+1/2, -z'
  7  '-x+1/2, y+1/2, -z'
  8  'x+1/2, -y+1/2, z'
loop_
 _atom_site_type_symbol
 _atom_site_label
 _atom_site_symmetry_multiplicity
 _atom_site_fract_x
 _atom_site_fract_y
 _atom_site_fract_z
 _atom_site_occupancy
  Sr  Sr0  4  0.147024  0.000000  0.027136  1
  Sr  Sr1  4  0.181496  0.500000  0.369592  1
  Sr  Sr2  2  0.000959  0.006901  0.496707  1
  B  B3  4  0.089116  0.500000  0.777603  1
  B  B4  2  0.000000  0.500000  0.000000  1
