# generated using pymatgen
data_SrB12
_symmetry_space_group_name_H-M   P-1
_cell_length_a   2.92229179
_cell_length_b   4.22262172
_cell_length_c   6.87513274
_cell_angle_alpha   90.04658392
_cell_angle_beta   90.49795653
_cell_angle_gamma   96.33708481
_symmetry_Int_Tables_number   2
_chemical_formula_structural   SrB12
_chemical_formula_sum   'Sr1 B12'
_cell_volume   84.31560278
_cell_formula_units_Z   1
loop_
 _symmetry_equiv_pos_site_id
 _symmetry_equiv_pos_as_xyz
  1  'x, y, z'
  2  '-x, -y, -z'
loop_
 _atom_site_type_symbol
 _atom_site_label
 _atom_site_symmetry_multiplicity
 _atom_site_fract_x
 _atom_site_fract_y
 _atom_site_fract_z
 _atom_site_occupancy
  Sr  Sr0  1  0.000000  0.000000  0.000000  1
  B  B1  2  0.012004  0.006266  0.613930  1
  B  B2  2  0.028363  0.476743  0.274322  1
  B  B3  2  0.201594  0.666005  0.505138  1
  B  B4  2  0.470955  0.815963  0.284836  1
  B  B5  2  0.481692  0.493479  0.879889  1
  B  B6  2  0.499673  0.207475  0.284877  1
