# generated using pymatgen
data_Sr8B5
_symmetry_space_group_name_H-M   P-1
_cell_length_a   4.70921945
_cell_length_b   6.38165602
_cell_length_c   6.55186614
_cell_angle_alpha   77.66694263
_cell_angle_beta   75.69629546
_cell_angle_gamma   87.02706060
_symmetry_Int_Tables_number   2
_chemical_formula_structural   Sr8B5
_chemical_formula_sum   'Sr8 B5'
_cell_volume   186.39356685
_cell_formula_units_Z   1
loop_
 _symmetry_equiv_pos_site_id
 _symmetry_equiv_pos_as_xyz
  1  'x, y, z'
  2  '-x, -y, -z'
loop_
 _atom_site_type_symbol
 _atom_site_label
 _atom_site_symmetry_multiplicity
 _atom_site_fract_x
 _atom_site_fract_y
 _atom_site_fract_z
 _atom_site_occupancy
  Sr  Sr0  2  0.009678  0.228838  0.963796  1
  Sr  Sr1  2  0.106487  0.708478  0.634590  1
  Sr  Sr2  2  0.295619  0.143921  0.584083  1
  Sr  Sr3  2  0.425308  0.569807  0.215028  1
  B  B4  2  0.249089  0.969884  0.245935  1
  B  B5  2  0.469926  0.170008  0.168577  1
  B  B6  1  0.500000  0.000000  0.000000  1
