# generated using pymatgen
data_SrB4
_symmetry_space_group_name_H-M   P1
_cell_length_a   4.87247059
_cell_length_b   4.94604834
_cell_length_c   5.63322179
_cell_angle_alpha   79.22611285
_cell_angle_beta   85.53041813
_cell_angle_gamma   71.90678022
_symmetry_Int_Tables_number   1
_chemical_formula_structural   SrB4
_chemical_formula_sum   'Sr3 B12'
_cell_volume   126.74135995
_cell_formula_units_Z   3
loop_
 _symmetry_equiv_pos_site_id
 _symmetry_equiv_pos_as_xyz
  1  'x, y, z'
loop_
 _atom_site_type_symbol
 _atom_site_label
 _atom_site_symmetry_multiplicity
 _atom_site_fract_x
 _atom_site_fract_y
 _atom_site_fract_z
 _atom_site_occupancy
  Sr  Sr0  1  0.227969  0.745862  0.963599  1
  Sr  Sr1  1  0.395414  0.712934  0.494802  1
  Sr  Sr2  1  0.699225  0.102922  0.716067  1
  B  B3  1  0.132408  0.320052  0.830973  1
  B  B4  1  0.174449  0.234749  0.569831  1
  B  B5  1  0.252764  0.183994  0.104581  1
  B  B6  1  0.377391  0.289019  0.321528  1
  B  B7  1  0.622283  0.039881  0.197343  1
  B  B8  1  0.677095  0.379986  0.172931  1
  B  B9  1  0.740576  0.705955  0.124088  1
  B  B10  1  0.784363  0.539609  0.890684  1
  B  B11  1  0.885641  0.791439  0.359787  1
  B  B12  1  0.928324  0.555952  0.621182  1
  B  B13  1  0.973473  0.091172  0.264333  1
  B  B14  1  0.994131  0.419938  0.320860  1
