# generated using pymatgen
data_SrB12
_symmetry_space_group_name_H-M   P1
_cell_length_a   2.89166701
_cell_length_b   4.18714797
_cell_length_c   7.14930963
_cell_angle_alpha   81.88422151
_cell_angle_beta   89.70561777
_cell_angle_gamma   88.04640561
_symmetry_Int_Tables_number   1
_chemical_formula_structural   SrB12
_chemical_formula_sum   'Sr1 B12'
_cell_volume   85.64592545
_cell_formula_units_Z   1
loop_
 _symmetry_equiv_pos_site_id
 _symmetry_equiv_pos_as_xyz
  1  'x, y, z'
loop_
 _atom_site_type_symbol
 _atom_site_label
 _atom_site_symmetry_multiplicity
 _atom_site_fract_x
 _atom_site_fract_y
 _atom_site_fract_z
 _atom_site_occupancy
  Sr  Sr0  1  0.088443  0.287497  0.994030  1
  B  B1  1  0.044672  0.715297  0.283238  1
  B  B2  1  0.057572  0.830985  0.752732  1
  B  B3  1  0.114457  0.142101  0.588680  1
  B  B4  1  0.126732  0.106838  0.366198  1
  B  B5  1  0.231019  0.752942  0.522643  1
  B  B6  1  0.557826  0.742880  0.124994  1
  B  B7  1  0.560260  0.572506  0.712763  1
  B  B8  1  0.564335  0.815351  0.884119  1
  B  B9  1  0.583215  0.407990  0.287959  1
  B  B10  1  0.600277  0.176644  0.708537  1
  B  B11  1  0.626698  0.027540  0.263332  1
  B  B12  1  0.794087  0.482891  0.497353  1
