# generated using pymatgen
data_Sr12B5
_symmetry_space_group_name_H-M   P1
_cell_length_a   5.04209012
_cell_length_b   5.74170009
_cell_length_c   10.20206573
_cell_angle_alpha   89.33330688
_cell_angle_beta   78.62163713
_cell_angle_gamma   66.51749252
_symmetry_Int_Tables_number   1
_chemical_formula_structural   Sr12B5
_chemical_formula_sum   'Sr12 B5'
_cell_volume   264.82909184
_cell_formula_units_Z   1
loop_
 _symmetry_equiv_pos_site_id
 _symmetry_equiv_pos_as_xyz
  1  'x, y, z'
loop_
 _atom_site_type_symbol
 _atom_site_label
 _atom_site_symmetry_multiplicity
 _atom_site_fract_x
 _atom_site_fract_y
 _atom_site_fract_z
 _atom_site_occupancy
  Sr  Sr0  1  0.096745  0.201255  0.551280  1
  Sr  Sr1  1  0.288323  0.573600  0.497988  1
  Sr  Sr2  1  0.301364  0.689669  0.234725  1
  Sr  Sr3  1  0.447087  0.103187  0.241408  1
  Sr  Sr4  1  0.498983  0.429675  0.966565  1
  Sr  Sr5  1  0.504707  0.953763  0.905227  1
  Sr  Sr6  1  0.527502  0.812244  0.650747  1
  Sr  Sr7  1  0.555595  0.343199  0.706248  1
  Sr  Sr8  1  0.790880  0.962674  0.425831  1
  Sr  Sr9  1  0.841887  0.459146  0.324141  1
  Sr  Sr10  1  0.899501  0.623722  0.046749  1
  Sr  Sr11  1  0.977997  0.098422  0.074463  1
  B  B12  1  0.047491  0.319858  0.815348  1
  B  B13  1  0.122073  0.779066  0.845221  1
  B  B14  1  0.966876  0.865047  0.706020  1
  B  B15  1  0.988714  0.597404  0.771294  1
  B  B16  1  0.996621  0.070650  0.809933  1
