# generated using pymatgen
data_Sr4B7
_symmetry_space_group_name_H-M   P1
_cell_length_a   4.43757047
_cell_length_b   5.10336087
_cell_length_c   5.93205962
_cell_angle_alpha   74.85265123
_cell_angle_beta   68.56249439
_cell_angle_gamma   74.82145230
_symmetry_Int_Tables_number   1
_chemical_formula_structural   Sr4B7
_chemical_formula_sum   'Sr4 B7'
_cell_volume   118.61572632
_cell_formula_units_Z   1
loop_
 _symmetry_equiv_pos_site_id
 _symmetry_equiv_pos_as_xyz
  1  'x, y, z'
loop_
 _atom_site_type_symbol
 _atom_site_label
 _atom_site_symmetry_multiplicity
 _atom_site_fract_x
 _atom_site_fract_y
 _atom_site_fract_z
 _atom_site_occupancy
  Sr  Sr0  1  0.017716  0.188189  0.621654  1
  Sr  Sr1  1  0.453066  0.494252  0.550969  1
  Sr  Sr2  1  0.503699  0.934207  0.172996  1
  Sr  Sr3  1  0.964306  0.249325  0.087117  1
  B  B4  1  0.010568  0.690957  0.275064  1
  B  B5  1  0.154410  0.734958  0.948128  1
  B  B6  1  0.318976  0.471344  0.181017  1
  B  B7  1  0.507654  0.902315  0.754298  1
  B  B8  1  0.555810  0.560685  0.917104  1
  B  B9  1  0.827284  0.841986  0.502075  1
  B  B10  1  0.875586  0.708797  0.789440  1
