# generated using pymatgen
data_Sr9B
_symmetry_space_group_name_H-M   P1
_cell_length_a   5.24030571
_cell_length_b   5.40969012
_cell_length_c   7.55517049
_cell_angle_alpha   80.42400324
_cell_angle_beta   72.80591672
_cell_angle_gamma   61.53248774
_symmetry_Int_Tables_number   1
_chemical_formula_structural   Sr9B
_chemical_formula_sum   'Sr9 B1'
_cell_volume   179.78344568
_cell_formula_units_Z   1
loop_
 _symmetry_equiv_pos_site_id
 _symmetry_equiv_pos_as_xyz
  1  'x, y, z'
loop_
 _atom_site_type_symbol
 _atom_site_label
 _atom_site_symmetry_multiplicity
 _atom_site_fract_x
 _atom_site_fract_y
 _atom_site_fract_z
 _atom_site_occupancy
  Sr  Sr0  1  0.041761  0.663879  0.584915  1
  Sr  Sr1  1  0.207085  0.108671  0.438469  1
  Sr  Sr2  1  0.278399  0.338756  0.012856  1
  Sr  Sr3  1  0.307005  0.798471  0.137947  1
  Sr  Sr4  1  0.370178  0.814694  0.760290  1
  Sr  Sr5  1  0.601623  0.215154  0.630666  1
  Sr  Sr6  1  0.698688  0.176117  0.226363  1
  Sr  Sr7  1  0.795207  0.618890  0.296988  1
  Sr  Sr8  1  0.873451  0.338730  0.857044  1
  B  B9  1  0.810478  0.853918  0.939299  1
