# generated using pymatgen
data_SrB2
_symmetry_space_group_name_H-M   C2/m
_cell_length_a   8.00964020
_cell_length_b   2.97600848
_cell_length_c   6.04599148
_cell_angle_alpha   90.00000000
_cell_angle_beta   124.25433317
_cell_angle_gamma   90.00000000
_symmetry_Int_Tables_number   12
_chemical_formula_structural   SrB2
_chemical_formula_sum   'Sr4 B8'
_cell_volume   119.11936052
_cell_formula_units_Z   4
loop_
 _symmetry_equiv_pos_site_id
 _symmetry_equiv_pos_as_xyz
  1  'x, y, z'
  2  '-x, -y, -z'
  3  '-x, y, -z'
  4  'x, -y, z'
  5  'x+1/2, y+1/2, z'
  6  '-x+1/2, -y+1/2, -z'
  7  '-x+1/2, y+1/2, -z'
  8  'x+1/2, -y+1/2, z'
loop_
 _atom_site_type_symbol
 _atom_site_label
 _atom_site_symmetry_multiplicity
 _atom_site_fract_x
 _atom_site_fract_y
 _atom_site_fract_z
 _atom_site_occupancy
  Sr  Sr0  4  0.075202  0.500000  0.857186  1
  B  B1  4  0.126841  0.000000  0.552630  1
  B  B2  4  0.242679  0.000000  0.387052  1
