# generated using pymatgen
data_Sr3B8
_symmetry_space_group_name_H-M   P-1
_cell_length_a   4.56571293
_cell_length_b   5.17921783
_cell_length_c   5.38377295
_cell_angle_alpha   93.65773609
_cell_angle_beta   107.13184804
_cell_angle_gamma   114.81051267
_symmetry_Int_Tables_number   2
_chemical_formula_structural   Sr3B8
_chemical_formula_sum   'Sr3 B8'
_cell_volume   107.82311660
_cell_formula_units_Z   1
loop_
 _symmetry_equiv_pos_site_id
 _symmetry_equiv_pos_as_xyz
  1  'x, y, z'
  2  '-x, -y, -z'
loop_
 _atom_site_type_symbol
 _atom_site_label
 _atom_site_symmetry_multiplicity
 _atom_site_fract_x
 _atom_site_fract_y
 _atom_site_fract_z
 _atom_site_occupancy
  Sr  Sr0  2  0.178186  0.969000  0.311682  1
  Sr  Sr1  1  0.500000  0.500000  0.000000  1
  B  B2  2  0.012085  0.403880  0.123665  1
  B  B3  2  0.131362  0.638899  0.628986  1
  B  B4  2  0.312948  0.512752  0.442512  1
  B  B5  2  0.318689  0.903460  0.888729  1
