# generated using pymatgen
data_SrB12
_symmetry_space_group_name_H-M   P-1
_cell_length_a   2.85472661
_cell_length_b   4.70349075
_cell_length_c   6.48635874
_cell_angle_alpha   86.81465231
_cell_angle_beta   83.52320072
_cell_angle_gamma   81.20172174
_symmetry_Int_Tables_number   2
_chemical_formula_structural   SrB12
_chemical_formula_sum   'Sr1 B12'
_cell_volume   85.45423126
_cell_formula_units_Z   1
loop_
 _symmetry_equiv_pos_site_id
 _symmetry_equiv_pos_as_xyz
  1  'x, y, z'
  2  '-x, -y, -z'
loop_
 _atom_site_type_symbol
 _atom_site_label
 _atom_site_symmetry_multiplicity
 _atom_site_fract_x
 _atom_site_fract_y
 _atom_site_fract_z
 _atom_site_occupancy
  Sr  Sr0  1  0.500000  0.500000  0.000000  1
  B  B1  2  0.040472  0.796432  0.701315  1
  B  B2  2  0.172076  0.412575  0.666004  1
  B  B3  2  0.224664  0.036168  0.078349  1
  B  B4  2  0.229758  0.082941  0.532912  1
  B  B5  2  0.232019  0.112231  0.813870  1
  B  B6  2  0.351987  0.400894  0.403601  1
