# generated using pymatgen
data_Sr5B8
_symmetry_space_group_name_H-M   P-1
_cell_length_a   3.09390341
_cell_length_b   4.69891148
_cell_length_c   10.11495207
_cell_angle_alpha   82.62688779
_cell_angle_beta   84.73561453
_cell_angle_gamma   78.31309026
_symmetry_Int_Tables_number   2
_chemical_formula_structural   Sr5B8
_chemical_formula_sum   'Sr5 B8'
_cell_volume   142.48403946
_cell_formula_units_Z   1
loop_
 _symmetry_equiv_pos_site_id
 _symmetry_equiv_pos_as_xyz
  1  'x, y, z'
  2  '-x, -y, -z'
loop_
 _atom_site_type_symbol
 _atom_site_label
 _atom_site_symmetry_multiplicity
 _atom_site_fract_x
 _atom_site_fract_y
 _atom_site_fract_z
 _atom_site_occupancy
  Sr  Sr0  2  0.140026  0.945454  0.347348  1
  Sr  Sr1  2  0.459152  0.457599  0.216525  1
  Sr  Sr2  1  0.000000  0.500000  0.000000  1
  B  B3  2  0.097034  0.543980  0.574150  1
  B  B4  2  0.193874  0.040462  0.883608  1
  B  B5  2  0.325298  0.960170  0.064439  1
  B  B6  2  0.421564  0.352974  0.465953  1
