# generated using pymatgen
data_Sr16B
_symmetry_space_group_name_H-M   P1
_cell_length_a   2.93317173
_cell_length_b   4.62193986
_cell_length_c   23.70063190
_cell_angle_alpha   84.63432599
_cell_angle_beta   88.14340720
_cell_angle_gamma   89.72685737
_symmetry_Int_Tables_number   1
_chemical_formula_structural   Sr16B
_chemical_formula_sum   'Sr16 B1'
_cell_volume   319.73178484
_cell_formula_units_Z   1
loop_
 _symmetry_equiv_pos_site_id
 _symmetry_equiv_pos_as_xyz
  1  'x, y, z'
loop_
 _atom_site_type_symbol
 _atom_site_label
 _atom_site_symmetry_multiplicity
 _atom_site_fract_x
 _atom_site_fract_y
 _atom_site_fract_z
 _atom_site_occupancy
  Sr  Sr0  1  0.033826  0.446164  0.536551  1
  Sr  Sr1  1  0.056123  0.978338  0.465110  1
  Sr  Sr2  1  0.114857  0.551526  0.281185  1
  Sr  Sr3  1  0.155150  0.654920  0.031989  1
  Sr  Sr4  1  0.188299  0.121956  0.109996  1
  Sr  Sr5  1  0.459748  0.381618  0.658698  1
  Sr  Sr6  1  0.462491  0.232221  0.878050  1
  Sr  Sr7  1  0.509804  0.919649  0.587558  1
  Sr  Sr8  1  0.567365  0.499514  0.412534  1
  Sr  Sr9  1  0.598468  0.028038  0.344190  1
  Sr  Sr10  1  0.631751  0.075078  0.225294  1
  Sr  Sr11  1  0.641264  0.172247  0.993649  1
  Sr  Sr12  1  0.679735  0.605157  0.153906  1
  Sr  Sr13  1  0.947472  0.718052  0.906454  1
  Sr  Sr14  1  0.957441  0.841928  0.719099  1
  Sr  Sr15  1  0.982150  0.307701  0.781476  1
  B  B16  1  0.453261  0.780281  0.812724  1
