# generated using pymatgen
data_Sr6B5
_symmetry_space_group_name_H-M   P-1
_cell_length_a   4.65497099
_cell_length_b   5.61011089
_cell_length_c   6.65166619
_cell_angle_alpha   105.14366182
_cell_angle_beta   104.72817295
_cell_angle_gamma   109.31066252
_symmetry_Int_Tables_number   2
_chemical_formula_structural   Sr6B5
_chemical_formula_sum   'Sr6 B5'
_cell_volume   146.76359081
_cell_formula_units_Z   1
loop_
 _symmetry_equiv_pos_site_id
 _symmetry_equiv_pos_as_xyz
  1  'x, y, z'
  2  '-x, -y, -z'
loop_
 _atom_site_type_symbol
 _atom_site_label
 _atom_site_symmetry_multiplicity
 _atom_site_fract_x
 _atom_site_fract_y
 _atom_site_fract_z
 _atom_site_occupancy
  Sr  Sr0  2  0.151168  0.850246  0.558407  1
  Sr  Sr1  2  0.326368  0.721810  0.917268  1
  Sr  Sr2  2  0.380062  0.575686  0.286980  1
  B  B3  2  0.083218  0.211334  0.861397  1
  B  B4  2  0.250920  0.065147  0.256930  1
  B  B5  1  0.000000  0.000000  0.000000  1
