# generated using pymatgen
data_SrB4
_symmetry_space_group_name_H-M   P-1
_cell_length_a   4.81555875
_cell_length_b   5.17271314
_cell_length_c   5.57312921
_cell_angle_alpha   92.77725698
_cell_angle_beta   95.81837204
_cell_angle_gamma   112.35840496
_symmetry_Int_Tables_number   2
_chemical_formula_structural   SrB4
_chemical_formula_sum   'Sr3 B12'
_cell_volume   127.15349725
_cell_formula_units_Z   3
loop_
 _symmetry_equiv_pos_site_id
 _symmetry_equiv_pos_as_xyz
  1  'x, y, z'
  2  '-x, -y, -z'
loop_
 _atom_site_type_symbol
 _atom_site_label
 _atom_site_symmetry_multiplicity
 _atom_site_fract_x
 _atom_site_fract_y
 _atom_site_fract_z
 _atom_site_occupancy
  Sr  Sr0  2  0.467958  0.601983  0.746891  1
  Sr  Sr1  1  0.000000  0.000000  0.000000  1
  B  B2  2  0.015650  0.211997  0.502315  1
  B  B3  2  0.093525  0.519525  0.384778  1
  B  B4  2  0.137888  0.591373  0.104811  1
  B  B5  2  0.283454  0.077766  0.614976  1
  B  B6  2  0.337408  0.853510  0.378546  1
  B  B7  2  0.466325  0.886576  0.112452  1
