# generated using pymatgen
data_Sr5B6
_symmetry_space_group_name_H-M   P-1
_cell_length_a   4.88055524
_cell_length_b   5.00367270
_cell_length_c   5.99079428
_cell_angle_alpha   88.70384773
_cell_angle_beta   68.57470517
_cell_angle_gamma   76.13908115
_symmetry_Int_Tables_number   2
_chemical_formula_structural   Sr5B6
_chemical_formula_sum   'Sr5 B6'
_cell_volume   131.88226078
_cell_formula_units_Z   1
loop_
 _symmetry_equiv_pos_site_id
 _symmetry_equiv_pos_as_xyz
  1  'x, y, z'
  2  '-x, -y, -z'
loop_
 _atom_site_type_symbol
 _atom_site_label
 _atom_site_symmetry_multiplicity
 _atom_site_fract_x
 _atom_site_fract_y
 _atom_site_fract_z
 _atom_site_occupancy
  Sr  Sr0  2  0.172401  0.040283  0.610375  1
  Sr  Sr1  2  0.200902  0.661168  0.974229  1
  Sr  Sr2  1  0.500000  0.500000  0.500000  1
  B  B3  2  0.064788  0.439105  0.363689  1
  B  B4  2  0.297320  0.192608  0.181027  1
  B  B5  2  0.455223  0.108225  0.886883  1
