# generated using pymatgen
data_SrB9
_symmetry_space_group_name_H-M   Pm
_cell_length_a   4.28390379
_cell_length_b   2.93615506
_cell_length_c   6.05136045
_cell_angle_alpha   90.00000000
_cell_angle_beta   110.50096747
_cell_angle_gamma   90.00000000
_symmetry_Int_Tables_number   6
_chemical_formula_structural   SrB9
_chemical_formula_sum   'Sr1 B9'
_cell_volume   71.29459436
_cell_formula_units_Z   1
loop_
 _symmetry_equiv_pos_site_id
 _symmetry_equiv_pos_as_xyz
  1  'x, y, z'
  2  'x, -y, z'
loop_
 _atom_site_type_symbol
 _atom_site_label
 _atom_site_symmetry_multiplicity
 _atom_site_fract_x
 _atom_site_fract_y
 _atom_site_fract_z
 _atom_site_occupancy
  Sr  Sr0  1  0.939948  0.500000  0.038499  1
  B  B1  1  0.296790  0.500000  0.756761  1
  B  B2  1  0.322375  0.000000  0.377217  1
  B  B3  1  0.369113  0.000000  0.893980  1
  B  B4  1  0.404305  0.500000  0.518662  1
  B  B5  1  0.507927  0.000000  0.182298  1
  B  B6  1  0.572929  0.000000  0.675902  1
  B  B7  1  0.888168  0.000000  0.372405  1
  B  B8  1  0.962203  0.000000  0.673735  1
  B  B9  1  0.993813  0.500000  0.500364  1
