# generated using pymatgen
data_Sr13B3
_symmetry_space_group_name_H-M   Cm
_cell_length_a   10.83543798
_cell_length_b   9.60215175
_cell_length_c   5.50430198
_cell_angle_alpha   90.00000000
_cell_angle_beta   107.09227644
_cell_angle_gamma   90.00000000
_symmetry_Int_Tables_number   8
_chemical_formula_structural   Sr13B3
_chemical_formula_sum   'Sr26 B6'
_cell_volume   547.39288332
_cell_formula_units_Z   2
loop_
 _symmetry_equiv_pos_site_id
 _symmetry_equiv_pos_as_xyz
  1  'x, y, z'
  2  'x, -y, z'
  3  'x+1/2, y+1/2, z'
  4  'x+1/2, -y+1/2, z'
loop_
 _atom_site_type_symbol
 _atom_site_label
 _atom_site_symmetry_multiplicity
 _atom_site_fract_x
 _atom_site_fract_y
 _atom_site_fract_z
 _atom_site_occupancy
  Sr  Sr0  4  0.183264  0.175311  0.125364  1
  Sr  Sr1  4  0.215988  0.297607  0.636642  1
  Sr  Sr2  4  0.436334  0.241522  0.305860  1
  Sr  Sr3  4  0.471643  0.210387  0.807560  1
  Sr  Sr4  2  0.102267  0.500000  0.249166  1
  Sr  Sr5  2  0.116685  0.000000  0.466589  1
  Sr  Sr6  2  0.319641  0.000000  0.901591  1
  Sr  Sr7  2  0.337440  0.500000  0.157565  1
  Sr  Sr8  2  0.431541  0.500000  0.744825  1
  B  B9  2  0.001910  0.500000  0.595282  1
  B  B10  2  0.133271  0.500000  0.811158  1
  B  B11  2  0.355816  0.000000  0.429728  1
