# generated using pymatgen
data_Sr5B3
_symmetry_space_group_name_H-M   P-1
_cell_length_a   4.51609923
_cell_length_b   6.89183380
_cell_length_c   7.72594241
_cell_angle_alpha   80.29343335
_cell_angle_beta   89.28774616
_cell_angle_gamma   78.24718333
_symmetry_Int_Tables_number   2
_chemical_formula_structural   Sr5B3
_chemical_formula_sum   'Sr10 B6'
_cell_volume   231.99250385
_cell_formula_units_Z   2
loop_
 _symmetry_equiv_pos_site_id
 _symmetry_equiv_pos_as_xyz
  1  'x, y, z'
  2  '-x, -y, -z'
loop_
 _atom_site_type_symbol
 _atom_site_label
 _atom_site_symmetry_multiplicity
 _atom_site_fract_x
 _atom_site_fract_y
 _atom_site_fract_z
 _atom_site_occupancy
  Sr  Sr0  2  0.044224  0.823685  0.132045  1
  Sr  Sr1  2  0.197985  0.850155  0.462227  1
  Sr  Sr2  2  0.252618  0.388977  0.437023  1
  Sr  Sr3  2  0.280942  0.431040  0.079878  1
  Sr  Sr4  2  0.491945  0.033282  0.192769  1
  B  B5  2  0.080842  0.792200  0.789797  1
  B  B6  2  0.232739  0.581076  0.745415  1
  B  B7  2  0.399400  0.354678  0.761084  1
