# generated using pymatgen
data_B
_symmetry_space_group_name_H-M   P2_1/c
_cell_length_a   2.91252815
_cell_length_b   3.02139119
_cell_length_c   2.91730271
_cell_angle_alpha   90.00000000
_cell_angle_beta   119.37019316
_cell_angle_gamma   90.00000000
_symmetry_Int_Tables_number   14
_chemical_formula_structural   B
_chemical_formula_sum   B4
_cell_volume   22.37229640
_cell_formula_units_Z   4
loop_
 _symmetry_equiv_pos_site_id
 _symmetry_equiv_pos_as_xyz
  1  'x, y, z'
  2  '-x, -y, -z'
  3  '-x, y+1/2, -z+1/2'
  4  'x, -y+1/2, z+1/2'
loop_
 _atom_site_type_symbol
 _atom_site_label
 _atom_site_symmetry_multiplicity
 _atom_site_fract_x
 _atom_site_fract_y
 _atom_site_fract_z
 _atom_site_occupancy
  B  B0  4  0.191729  0.101860  0.384578  1
