# generated using pymatgen
data_Sr7B5
_symmetry_space_group_name_H-M   Cm
_cell_length_a   15.51923639
_cell_length_b   4.49174316
_cell_length_c   4.64517105
_cell_angle_alpha   90.00000000
_cell_angle_beta   93.92561880
_cell_angle_gamma   90.00000000
_symmetry_Int_Tables_number   8
_chemical_formula_structural   Sr7B5
_chemical_formula_sum   'Sr14 B10'
_cell_volume   323.04782483
_cell_formula_units_Z   2
loop_
 _symmetry_equiv_pos_site_id
 _symmetry_equiv_pos_as_xyz
  1  'x, y, z'
  2  'x, -y, z'
  3  'x+1/2, y+1/2, z'
  4  'x+1/2, -y+1/2, z'
loop_
 _atom_site_type_symbol
 _atom_site_label
 _atom_site_symmetry_multiplicity
 _atom_site_fract_x
 _atom_site_fract_y
 _atom_site_fract_z
 _atom_site_occupancy
  Sr  Sr0  2  0.082271  0.000000  0.779633  1
  Sr  Sr1  2  0.176472  0.000000  0.295826  1
  Sr  Sr2  2  0.178685  0.500000  0.862772  1
  Sr  Sr3  2  0.274290  0.500000  0.427765  1
  Sr  Sr4  2  0.373451  0.500000  0.931059  1
  Sr  Sr5  2  0.375681  0.000000  0.290529  1
  Sr  Sr6  2  0.476593  0.000000  0.776655  1
  B  B7  4  0.018779  0.181749  0.281690  1
  B  B8  2  0.074371  0.500000  0.311944  1
  B  B9  2  0.275879  0.000000  0.789057  1
  B  B10  2  0.443894  0.500000  0.455531  1
