# generated using pymatgen
data_SrB3
_symmetry_space_group_name_H-M   P-1
_cell_length_a   5.00339999
_cell_length_b   5.62723838
_cell_length_c   5.72865909
_cell_angle_alpha   67.69826605
_cell_angle_beta   80.32562751
_cell_angle_gamma   86.63412571
_symmetry_Int_Tables_number   2
_chemical_formula_structural   SrB3
_chemical_formula_sum   'Sr4 B12'
_cell_volume   147.10284472
_cell_formula_units_Z   4
loop_
 _symmetry_equiv_pos_site_id
 _symmetry_equiv_pos_as_xyz
  1  'x, y, z'
  2  '-x, -y, -z'
loop_
 _atom_site_type_symbol
 _atom_site_label
 _atom_site_symmetry_multiplicity
 _atom_site_fract_x
 _atom_site_fract_y
 _atom_site_fract_z
 _atom_site_occupancy
  Sr  Sr0  2  0.048439  0.872437  0.770646  1
  Sr  Sr1  2  0.213986  0.466110  0.655434  1
  B  B2  2  0.306385  0.494349  0.161772  1
  B  B3  2  0.314962  0.781286  0.176176  1
  B  B4  2  0.367974  0.063941  0.925484  1
  B  B5  2  0.394705  0.212321  0.374364  1
  B  B6  2  0.453493  0.910352  0.364285  1
  B  B7  2  0.460956  0.263254  0.062694  1
