# generated using pymatgen
data_Sr3B7
_symmetry_space_group_name_H-M   Cm
_cell_length_a   8.50029874
_cell_length_b   4.42214224
_cell_length_c   6.21694892
_cell_angle_alpha   90.00000000
_cell_angle_beta   121.58975412
_cell_angle_gamma   90.00000000
_symmetry_Int_Tables_number   8
_chemical_formula_structural   Sr3B7
_chemical_formula_sum   'Sr6 B14'
_cell_volume   199.06382548
_cell_formula_units_Z   2
loop_
 _symmetry_equiv_pos_site_id
 _symmetry_equiv_pos_as_xyz
  1  'x, y, z'
  2  'x, -y, z'
  3  'x+1/2, y+1/2, z'
  4  'x+1/2, -y+1/2, z'
loop_
 _atom_site_type_symbol
 _atom_site_label
 _atom_site_symmetry_multiplicity
 _atom_site_fract_x
 _atom_site_fract_y
 _atom_site_fract_z
 _atom_site_occupancy
  Sr  Sr0  2  0.237018  0.000000  0.319691  1
  Sr  Sr1  2  0.326080  0.000000  0.943443  1
  Sr  Sr2  2  0.423215  0.500000  0.771246  1
  B  B3  4  0.049320  0.186028  0.505477  1
  B  B4  2  0.065744  0.500000  0.675814  1
  B  B5  2  0.097722  0.500000  0.409601  1
  B  B6  2  0.169976  0.500000  0.218315  1
  B  B7  2  0.184279  0.500000  0.981652  1
  B  B8  2  0.381700  0.500000  0.248483  1
