# generated using pymatgen
data_Sr4B3
_symmetry_space_group_name_H-M   P-1
_cell_length_a   5.28280680
_cell_length_b   5.48625047
_cell_length_c   7.03531467
_cell_angle_alpha   73.85351467
_cell_angle_beta   82.94074354
_cell_angle_gamma   77.31793147
_symmetry_Int_Tables_number   2
_chemical_formula_structural   Sr4B3
_chemical_formula_sum   'Sr8 B6'
_cell_volume   190.66506329
_cell_formula_units_Z   2
loop_
 _symmetry_equiv_pos_site_id
 _symmetry_equiv_pos_as_xyz
  1  'x, y, z'
  2  '-x, -y, -z'
loop_
 _atom_site_type_symbol
 _atom_site_label
 _atom_site_symmetry_multiplicity
 _atom_site_fract_x
 _atom_site_fract_y
 _atom_site_fract_z
 _atom_site_occupancy
  Sr  Sr0  2  0.149338  0.192495  0.629275  1
  Sr  Sr1  2  0.253704  0.894075  0.037451  1
  Sr  Sr2  2  0.264901  0.465631  0.894437  1
  Sr  Sr3  2  0.331935  0.739262  0.502962  1
  B  B4  2  0.096992  0.193108  0.268488  1
  B  B5  2  0.235549  0.443324  0.266953  1
  B  B6  2  0.409293  0.157238  0.251982  1
