# generated using pymatgen
data_Sr5B3
_symmetry_space_group_name_H-M   Pm
_cell_length_a   5.98277351
_cell_length_b   2.83651545
_cell_length_c   6.82887804
_cell_angle_alpha   90.00000000
_cell_angle_beta   97.11839120
_cell_angle_gamma   90.00000000
_symmetry_Int_Tables_number   6
_chemical_formula_structural   Sr5B3
_chemical_formula_sum   'Sr5 B3'
_cell_volume   114.99439059
_cell_formula_units_Z   1
loop_
 _symmetry_equiv_pos_site_id
 _symmetry_equiv_pos_as_xyz
  1  'x, y, z'
  2  'x, -y, z'
loop_
 _atom_site_type_symbol
 _atom_site_label
 _atom_site_symmetry_multiplicity
 _atom_site_fract_x
 _atom_site_fract_y
 _atom_site_fract_z
 _atom_site_occupancy
  Sr  Sr0  1  0.102064  0.000000  0.214254  1
  Sr  Sr1  1  0.236582  0.000000  0.843623  1
  Sr  Sr2  1  0.464271  0.000000  0.503489  1
  Sr  Sr3  1  0.621562  0.000000  0.128893  1
  Sr  Sr4  1  0.781187  0.500000  0.807946  1
  B  B5  1  0.078577  0.500000  0.540528  1
  B  B6  1  0.822359  0.500000  0.416065  1
  B  B7  1  0.921371  0.000000  0.529665  1
