# generated using pymatgen
data_Sr7B4
_symmetry_space_group_name_H-M   C2/m
_cell_length_a   9.06670597
_cell_length_b   4.30963106
_cell_length_c   8.11955980
_cell_angle_alpha   90.00000000
_cell_angle_beta   94.57758253
_cell_angle_gamma   90.00000000
_symmetry_Int_Tables_number   12
_chemical_formula_structural   Sr7B4
_chemical_formula_sum   'Sr14 B8'
_cell_volume   316.25294198
_cell_formula_units_Z   2
loop_
 _symmetry_equiv_pos_site_id
 _symmetry_equiv_pos_as_xyz
  1  'x, y, z'
  2  '-x, -y, -z'
  3  '-x, y, -z'
  4  'x, -y, z'
  5  'x+1/2, y+1/2, z'
  6  '-x+1/2, -y+1/2, -z'
  7  '-x+1/2, y+1/2, -z'
  8  'x+1/2, -y+1/2, z'
loop_
 _atom_site_type_symbol
 _atom_site_label
 _atom_site_symmetry_multiplicity
 _atom_site_fract_x
 _atom_site_fract_y
 _atom_site_fract_z
 _atom_site_occupancy
  Sr  Sr0  4  0.050390  0.000000  0.662634  1
  Sr  Sr1  4  0.150110  0.500000  0.430563  1
  Sr  Sr2  4  0.187876  0.500000  0.099635  1
  Sr  Sr3  2  0.000000  0.000000  0.000000  1
  B  B4  4  0.098245  0.500000  0.799115  1
  B  B5  4  0.239872  0.000000  0.263644  1
