# generated using pymatgen
data_SrB7
_symmetry_space_group_name_H-M   Cm
_cell_length_a   6.67686293
_cell_length_b   4.55726415
_cell_length_c   4.22111345
_cell_angle_alpha   90.00000000
_cell_angle_beta   112.05063006
_cell_angle_gamma   90.00000000
_symmetry_Int_Tables_number   8
_chemical_formula_structural   SrB7
_chemical_formula_sum   'Sr2 B14'
_cell_volume   119.04586046
_cell_formula_units_Z   2
loop_
 _symmetry_equiv_pos_site_id
 _symmetry_equiv_pos_as_xyz
  1  'x, y, z'
  2  'x, -y, z'
  3  'x+1/2, y+1/2, z'
  4  'x+1/2, -y+1/2, z'
loop_
 _atom_site_type_symbol
 _atom_site_label
 _atom_site_symmetry_multiplicity
 _atom_site_fract_x
 _atom_site_fract_y
 _atom_site_fract_z
 _atom_site_occupancy
  Sr  Sr0  2  0.387032  0.500000  0.598743  1
  B  B1  4  0.032214  0.302246  0.154505  1
  B  B2  4  0.253524  0.189045  0.014362  1
  B  B3  2  0.100395  0.500000  0.859151  1
  B  B4  2  0.179911  0.000000  0.306131  1
  B  B5  2  0.450549  0.000000  0.419767  1
