# generated using pymatgen
data_Sr17B2
_symmetry_space_group_name_H-M   Cm
_cell_length_a   9.69216583
_cell_length_b   4.33193522
_cell_length_c   16.75106750
_cell_angle_alpha   90.00000000
_cell_angle_beta   99.26814858
_cell_angle_gamma   90.00000000
_symmetry_Int_Tables_number   8
_chemical_formula_structural   Sr17B2
_chemical_formula_sum   'Sr34 B4'
_cell_volume   694.12615064
_cell_formula_units_Z   2
loop_
 _symmetry_equiv_pos_site_id
 _symmetry_equiv_pos_as_xyz
  1  'x, y, z'
  2  'x, -y, z'
  3  'x+1/2, y+1/2, z'
  4  'x+1/2, -y+1/2, z'
loop_
 _atom_site_type_symbol
 _atom_site_label
 _atom_site_symmetry_multiplicity
 _atom_site_fract_x
 _atom_site_fract_y
 _atom_site_fract_z
 _atom_site_occupancy
  Sr  Sr0  2  0.026437  0.000000  0.578957  1
  Sr  Sr1  2  0.032903  0.000000  0.957339  1
  Sr  Sr2  2  0.111397  0.500000  0.461789  1
  Sr  Sr3  2  0.124900  0.500000  0.873205  1
  Sr  Sr4  2  0.146508  0.000000  0.122819  1
  Sr  Sr5  2  0.157679  0.000000  0.342390  1
  Sr  Sr6  2  0.184279  0.000000  0.751382  1
  Sr  Sr7  2  0.214944  0.500000  0.233685  1
  Sr  Sr8  2  0.245451  0.500000  0.632860  1
  Sr  Sr9  2  0.317238  0.000000  0.517558  1
  Sr  Sr10  2  0.319552  0.500000  0.053253  1
  Sr  Sr11  2  0.327569  0.000000  0.931417  1
  Sr  Sr12  2  0.391702  0.500000  0.796883  1
  Sr  Sr13  2  0.394769  0.500000  0.404903  1
  Sr  Sr14  2  0.431930  0.000000  0.139362  1
  Sr  Sr15  2  0.433172  0.000000  0.302178  1
  Sr  Sr16  2  0.470298  0.000000  0.694619  1
  B  B17  2  0.065402  0.500000  0.030979  1
  B  B18  2  0.476843  0.500000  0.220978  1
