# generated using pymatgen
data_Sr5B4
_symmetry_space_group_name_H-M   Cm
_cell_length_a   10.38327531
_cell_length_b   4.49425218
_cell_length_c   5.11644365
_cell_angle_alpha   90.00000000
_cell_angle_beta   90.17361507
_cell_angle_gamma   90.00000000
_symmetry_Int_Tables_number   8
_chemical_formula_structural   Sr5B4
_chemical_formula_sum   'Sr10 B8'
_cell_volume   238.75804210
_cell_formula_units_Z   2
loop_
 _symmetry_equiv_pos_site_id
 _symmetry_equiv_pos_as_xyz
  1  'x, y, z'
  2  'x, -y, z'
  3  'x+1/2, y+1/2, z'
  4  'x+1/2, -y+1/2, z'
loop_
 _atom_site_type_symbol
 _atom_site_label
 _atom_site_symmetry_multiplicity
 _atom_site_fract_x
 _atom_site_fract_y
 _atom_site_fract_z
 _atom_site_occupancy
  Sr  Sr0  2  0.017750  0.500000  0.232379  1
  Sr  Sr1  2  0.186444  0.000000  0.096033  1
  Sr  Sr2  2  0.268320  0.500000  0.364031  1
  Sr  Sr3  2  0.378674  0.000000  0.670458  1
  Sr  Sr4  2  0.420787  0.500000  0.949696  1
  B  B5  4  0.112472  0.183813  0.650007  1
  B  B6  2  0.005183  0.000000  0.471879  1
  B  B7  2  0.150372  0.500000  0.797686  1
