# generated using pymatgen
data_Sr8B3
_symmetry_space_group_name_H-M   P1
_cell_length_a   5.00692497
_cell_length_b   5.28673384
_cell_length_c   7.71447446
_cell_angle_alpha   79.80513087
_cell_angle_beta   73.31953659
_cell_angle_gamma   63.06408342
_symmetry_Int_Tables_number   1
_chemical_formula_structural   Sr8B3
_chemical_formula_sum   'Sr8 B3'
_cell_volume   174.12632079
_cell_formula_units_Z   1
loop_
 _symmetry_equiv_pos_site_id
 _symmetry_equiv_pos_as_xyz
  1  'x, y, z'
loop_
 _atom_site_type_symbol
 _atom_site_label
 _atom_site_symmetry_multiplicity
 _atom_site_fract_x
 _atom_site_fract_y
 _atom_site_fract_z
 _atom_site_occupancy
  Sr  Sr0  1  0.032825  0.155173  0.444205  1
  Sr  Sr1  1  0.061867  0.214530  0.004699  1
  Sr  Sr2  1  0.189710  0.736528  0.764393  1
  Sr  Sr3  1  0.313578  0.450353  0.159181  1
  Sr  Sr4  1  0.425001  0.150743  0.646912  1
  Sr  Sr5  1  0.486378  0.598382  0.411638  1
  Sr  Sr6  1  0.642643  0.784810  0.967522  1
  Sr  Sr7  1  0.783559  0.926019  0.251358  1
  B  B8  1  0.674865  0.257875  0.848284  1
  B  B9  1  0.792851  0.465098  0.709997  1
  B  B10  1  0.903420  0.657314  0.552691  1
