# generated using pymatgen
data_Sr3B8
_symmetry_space_group_name_H-M   P1
_cell_length_a   4.68710739
_cell_length_b   5.07576953
_cell_length_c   5.48325484
_cell_angle_alpha   63.38173212
_cell_angle_beta   69.73610421
_cell_angle_gamma   69.10119662
_symmetry_Int_Tables_number   1
_chemical_formula_structural   Sr3B8
_chemical_formula_sum   'Sr3 B8'
_cell_volume   106.19998258
_cell_formula_units_Z   1
loop_
 _symmetry_equiv_pos_site_id
 _symmetry_equiv_pos_as_xyz
  1  'x, y, z'
loop_
 _atom_site_type_symbol
 _atom_site_label
 _atom_site_symmetry_multiplicity
 _atom_site_fract_x
 _atom_site_fract_y
 _atom_site_fract_z
 _atom_site_occupancy
  Sr  Sr0  1  0.433983  0.709979  0.893279  1
  Sr  Sr1  1  0.629849  0.777454  0.338196  1
  Sr  Sr2  1  0.873333  0.122824  0.779322  1
  B  B3  1  0.042310  0.978323  0.337965  1
  B  B4  1  0.084494  0.665308  0.605895  1
  B  B5  1  0.108878  0.325047  0.266601  1
  B  B6  1  0.260651  0.154497  0.042262  1
  B  B7  1  0.313246  0.333859  0.723674  1
  B  B8  1  0.352683  0.349422  0.416589  1
  B  B9  1  0.751657  0.288983  0.255781  1
  B  B10  1  0.986798  0.486911  0.951784  1
