# generated using pymatgen
data_Sr9B4
_symmetry_space_group_name_H-M   Cm
_cell_length_a   8.42565613
_cell_length_b   4.36077269
_cell_length_c   11.27476043
_cell_angle_alpha   90.00000000
_cell_angle_beta   106.68586759
_cell_angle_gamma   90.00000000
_symmetry_Int_Tables_number   8
_chemical_formula_structural   Sr9B4
_chemical_formula_sum   'Sr18 B8'
_cell_volume   396.81826972
_cell_formula_units_Z   2
loop_
 _symmetry_equiv_pos_site_id
 _symmetry_equiv_pos_as_xyz
  1  'x, y, z'
  2  'x, -y, z'
  3  'x+1/2, y+1/2, z'
  4  'x+1/2, -y+1/2, z'
loop_
 _atom_site_type_symbol
 _atom_site_label
 _atom_site_symmetry_multiplicity
 _atom_site_fract_x
 _atom_site_fract_y
 _atom_site_fract_z
 _atom_site_occupancy
  Sr  Sr0  2  0.011917  0.500000  0.778998  1
  Sr  Sr1  2  0.070970  0.500000  0.547777  1
  Sr  Sr2  2  0.149097  0.500000  0.115851  1
  Sr  Sr3  2  0.197362  0.000000  0.789953  1
  Sr  Sr4  2  0.245002  0.000000  0.533614  1
  Sr  Sr5  2  0.292162  0.000000  0.061663  1
  Sr  Sr6  2  0.339814  0.500000  0.360109  1
  Sr  Sr7  2  0.425764  0.500000  0.941150  1
  Sr  Sr8  2  0.492220  0.000000  0.304242  1
  B  B9  2  0.162479  0.000000  0.271731  1
  B  B10  2  0.330123  0.500000  0.708018  1
  B  B11  2  0.432612  0.500000  0.609735  1
  B  B12  2  0.485403  0.500000  0.172650  1
