# generated using pymatgen
data_Sr9B5
_symmetry_space_group_name_H-M   P1
_cell_length_a   5.25236794
_cell_length_b   6.25454819
_cell_length_c   6.50572048
_cell_angle_alpha   88.13664477
_cell_angle_beta   74.55548574
_cell_angle_gamma   78.56839160
_symmetry_Int_Tables_number   1
_chemical_formula_structural   Sr9B5
_chemical_formula_sum   'Sr9 B5'
_cell_volume   201.86979379
_cell_formula_units_Z   1
loop_
 _symmetry_equiv_pos_site_id
 _symmetry_equiv_pos_as_xyz
  1  'x, y, z'
loop_
 _atom_site_type_symbol
 _atom_site_label
 _atom_site_symmetry_multiplicity
 _atom_site_fract_x
 _atom_site_fract_y
 _atom_site_fract_z
 _atom_site_occupancy
  Sr  Sr0  1  0.079340  0.531721  0.726458  1
  Sr  Sr1  1  0.121086  0.071506  0.735962  1
  Sr  Sr2  1  0.220694  0.496944  0.154086  1
  Sr  Sr3  1  0.380539  0.737724  0.407478  1
  Sr  Sr4  1  0.476339  0.166440  0.356956  1
  Sr  Sr5  1  0.538135  0.707105  0.837341  1
  Sr  Sr6  1  0.565960  0.173947  0.836342  1
  Sr  Sr7  1  0.773607  0.426206  0.477728  1
  Sr  Sr8  1  0.822892  0.824804  0.101458  1
  B  B9  1  0.004067  0.030328  0.346938  1
  B  B10  1  0.242654  0.990845  0.118074  1
  B  B11  1  0.775370  0.393283  0.068733  1
  B  B12  1  0.833163  0.872815  0.511415  1
  B  B13  1  0.982247  0.189525  0.131098  1
