# generated using pymatgen
data_Sr4B9
_symmetry_space_group_name_H-M   P1
_cell_length_a   4.84068452
_cell_length_b   5.21087544
_cell_length_c   5.76551789
_cell_angle_alpha   103.18387522
_cell_angle_beta   100.65332124
_cell_angle_gamma   99.47153177
_symmetry_Int_Tables_number   1
_chemical_formula_structural   Sr4B9
_chemical_formula_sum   'Sr4 B9'
_cell_volume   135.87060468
_cell_formula_units_Z   1
loop_
 _symmetry_equiv_pos_site_id
 _symmetry_equiv_pos_as_xyz
  1  'x, y, z'
loop_
 _atom_site_type_symbol
 _atom_site_label
 _atom_site_symmetry_multiplicity
 _atom_site_fract_x
 _atom_site_fract_y
 _atom_site_fract_z
 _atom_site_occupancy
  Sr  Sr0  1  0.159584  0.948731  0.985165  1
  Sr  Sr1  1  0.257893  0.246413  0.484084  1
  Sr  Sr2  1  0.614683  0.623444  0.968598  1
  Sr  Sr3  1  0.917995  0.632789  0.504001  1
  B  B4  1  0.069592  0.405399  0.865545  1
  B  B5  1  0.193452  0.526449  0.148038  1
  B  B6  1  0.407020  0.743129  0.362914  1
  B  B7  1  0.519664  0.903005  0.635410  1
  B  B8  1  0.632980  0.096770  0.897457  1
  B  B9  1  0.673724  0.003770  0.397941  1
  B  B10  1  0.690776  0.149432  0.185065  1
  B  B11  1  0.811950  0.174201  0.689019  1
  B  B12  1  0.911886  0.317412  0.088328  1
