# generated using pymatgen
data_Sr15B4
_symmetry_space_group_name_H-M   Cm
_cell_length_a   28.58720229
_cell_length_b   4.30450964
_cell_length_c   5.21126456
_cell_angle_alpha   90.00000000
_cell_angle_beta   96.87868541
_cell_angle_gamma   90.00000000
_symmetry_Int_Tables_number   8
_chemical_formula_structural   Sr15B4
_chemical_formula_sum   'Sr30 B8'
_cell_volume   636.65050676
_cell_formula_units_Z   2
loop_
 _symmetry_equiv_pos_site_id
 _symmetry_equiv_pos_as_xyz
  1  'x, y, z'
  2  'x, -y, z'
  3  'x+1/2, y+1/2, z'
  4  'x+1/2, -y+1/2, z'
loop_
 _atom_site_type_symbol
 _atom_site_label
 _atom_site_symmetry_multiplicity
 _atom_site_fract_x
 _atom_site_fract_y
 _atom_site_fract_z
 _atom_site_occupancy
  Sr  Sr0  2  0.043092  0.000000  0.644399  1
  Sr  Sr1  2  0.083834  0.500000  0.945653  1
  Sr  Sr2  2  0.104100  0.000000  0.291974  1
  Sr  Sr3  2  0.155469  0.500000  0.517089  1
  Sr  Sr4  2  0.165595  0.000000  0.893113  1
  Sr  Sr5  2  0.213338  0.500000  0.111286  1
  Sr  Sr6  2  0.234714  0.000000  0.507160  1
  Sr  Sr7  2  0.275981  0.500000  0.751407  1
  Sr  Sr8  2  0.310700  0.500000  0.275831  1
  Sr  Sr9  2  0.352914  0.000000  0.513038  1
  Sr  Sr10  2  0.373166  0.500000  0.913172  1
  Sr  Sr11  2  0.422130  0.000000  0.120653  1
  Sr  Sr12  2  0.428940  0.500000  0.496534  1
  Sr  Sr13  2  0.480842  0.000000  0.728583  1
  Sr  Sr14  2  0.494895  0.500000  0.104839  1
  B  B15  2  0.015694  0.500000  0.302598  1
  B  B16  2  0.066296  0.500000  0.446743  1
  B  B17  2  0.266510  0.000000  0.046383  1
  B  B18  2  0.319370  0.000000  0.975496  1
