# generated using pymatgen
data_Sr9B7
_symmetry_space_group_name_H-M   P1
_cell_length_a   4.78721126
_cell_length_b   5.66405221
_cell_length_c   7.97105155
_cell_angle_alpha   87.98203529
_cell_angle_beta   83.33453792
_cell_angle_gamma   89.31837980
_symmetry_Int_Tables_number   1
_chemical_formula_structural   Sr9B7
_chemical_formula_sum   'Sr9 B7'
_cell_volume   214.53450458
_cell_formula_units_Z   1
loop_
 _symmetry_equiv_pos_site_id
 _symmetry_equiv_pos_as_xyz
  1  'x, y, z'
loop_
 _atom_site_type_symbol
 _atom_site_label
 _atom_site_symmetry_multiplicity
 _atom_site_fract_x
 _atom_site_fract_y
 _atom_site_fract_z
 _atom_site_occupancy
  Sr  Sr0  1  0.126836  0.388117  0.023265  1
  Sr  Sr1  1  0.203456  0.475419  0.394767  1
  Sr  Sr2  1  0.326551  0.817102  0.115636  1
  Sr  Sr3  1  0.396258  0.919138  0.468541  1
  Sr  Sr4  1  0.648403  0.345529  0.879265  1
  Sr  Sr5  1  0.672280  0.396983  0.552863  1
  Sr  Sr6  1  0.836350  0.877446  0.959019  1
  Sr  Sr7  1  0.870020  0.863686  0.629959  1
  Sr  Sr8  1  0.939960  0.093362  0.295589  1
  B  B9  1  0.172475  0.235393  0.703610  1
  B  B10  1  0.175851  0.517426  0.717559  1
  B  B11  1  0.332014  0.013272  0.789195  1
  B  B12  1  0.348169  0.730188  0.786103  1
  B  B13  1  0.512880  0.216587  0.190990  1
  B  B14  1  0.653198  0.463251  0.204108  1
  B  B15  1  0.784510  0.686104  0.271768  1
