# generated using pymatgen
data_Sr4B9
_symmetry_space_group_name_H-M   P1
_cell_length_a   4.66837582
_cell_length_b   5.05389898
_cell_length_c   6.06779538
_cell_angle_alpha   87.23176144
_cell_angle_beta   86.29166020
_cell_angle_gamma   71.83006987
_symmetry_Int_Tables_number   1
_chemical_formula_structural   Sr4B9
_chemical_formula_sum   'Sr4 B9'
_cell_volume   135.67740824
_cell_formula_units_Z   1
loop_
 _symmetry_equiv_pos_site_id
 _symmetry_equiv_pos_as_xyz
  1  'x, y, z'
loop_
 _atom_site_type_symbol
 _atom_site_label
 _atom_site_symmetry_multiplicity
 _atom_site_fract_x
 _atom_site_fract_y
 _atom_site_fract_z
 _atom_site_occupancy
  Sr  Sr0  1  0.175481  0.993489  0.226633  1
  Sr  Sr1  1  0.266278  0.105343  0.744094  1
  Sr  Sr2  1  0.653564  0.436840  0.725379  1
  Sr  Sr3  1  0.741407  0.622020  0.249997  1
  B  B4  1  0.101136  0.657617  0.897580  1
  B  B5  1  0.107075  0.665595  0.579465  1
  B  B6  1  0.278131  0.451946  0.383463  1
  B  B7  1  0.292954  0.470035  0.093822  1
  B  B8  1  0.596259  0.181837  0.374999  1
  B  B9  1  0.610745  0.203801  0.106414  1
  B  B10  1  0.802576  0.962822  0.964563  1
  B  B11  1  0.803029  0.952295  0.518538  1
  B  B12  1  0.836413  0.829203  0.748037  1
