# generated using pymatgen
data_Sr8B3
_symmetry_space_group_name_H-M   C2
_cell_length_a   9.53165468
_cell_length_b   5.44225381
_cell_length_c   7.19743139
_cell_angle_alpha   90.00000000
_cell_angle_beta   110.17770053
_cell_angle_gamma   90.00000000
_symmetry_Int_Tables_number   5
_chemical_formula_structural   Sr8B3
_chemical_formula_sum   'Sr16 B6'
_cell_volume   350.44335258
_cell_formula_units_Z   2
loop_
 _symmetry_equiv_pos_site_id
 _symmetry_equiv_pos_as_xyz
  1  'x, y, z'
  2  '-x, y, -z'
  3  'x+1/2, y+1/2, z'
  4  '-x+1/2, y+1/2, -z'
loop_
 _atom_site_type_symbol
 _atom_site_label
 _atom_site_symmetry_multiplicity
 _atom_site_fract_x
 _atom_site_fract_y
 _atom_site_fract_z
 _atom_site_occupancy
  Sr  Sr0  4  0.013855  0.916627  0.227459  1
  Sr  Sr1  4  0.093473  0.431215  0.216989  1
  Sr  Sr2  4  0.156306  0.198205  0.593137  1
  Sr  Sr3  4  0.233534  0.507471  0.921747  1
  B  B4  4  0.168260  0.700542  0.592173  1
  B  B5  2  0.000000  0.621615  0.500000  1
