# generated using pymatgen
data_Sr3B7
_symmetry_space_group_name_H-M   Cm
_cell_length_a   9.96154012
_cell_length_b   4.08739947
_cell_length_c   4.94427889
_cell_angle_alpha   90.00000000
_cell_angle_beta   92.06808845
_cell_angle_gamma   90.00000000
_symmetry_Int_Tables_number   8
_chemical_formula_structural   Sr3B7
_chemical_formula_sum   'Sr6 B14'
_cell_volume   201.18405726
_cell_formula_units_Z   2
loop_
 _symmetry_equiv_pos_site_id
 _symmetry_equiv_pos_as_xyz
  1  'x, y, z'
  2  'x, -y, z'
  3  'x+1/2, y+1/2, z'
  4  'x+1/2, -y+1/2, z'
loop_
 _atom_site_type_symbol
 _atom_site_label
 _atom_site_symmetry_multiplicity
 _atom_site_fract_x
 _atom_site_fract_y
 _atom_site_fract_z
 _atom_site_occupancy
  Sr  Sr0  2  0.101183  0.500000  0.465128  1
  Sr  Sr1  2  0.241978  0.500000  0.944870  1
  Sr  Sr2  2  0.417313  0.000000  0.926456  1
  B  B3  4  0.358152  0.237434  0.414595  1
  B  B4  2  0.069713  0.000000  0.810064  1
  B  B5  2  0.104887  0.000000  0.120632  1
  B  B6  2  0.235990  0.000000  0.330046  1
  B  B7  2  0.441657  0.500000  0.608479  1
  B  B8  2  0.458071  0.500000  0.263079  1
