# generated using pymatgen
data_Sr8B
_symmetry_space_group_name_H-M   P-1
_cell_length_a   5.33957818
_cell_length_b   5.39046379
_cell_length_c   5.78234971
_cell_angle_alpha   86.93982417
_cell_angle_beta   78.70131058
_cell_angle_gamma   88.21065983
_symmetry_Int_Tables_number   2
_chemical_formula_structural   Sr8B
_chemical_formula_sum   'Sr8 B1'
_cell_volume   162.93725350
_cell_formula_units_Z   1
loop_
 _symmetry_equiv_pos_site_id
 _symmetry_equiv_pos_as_xyz
  1  'x, y, z'
  2  '-x, -y, -z'
loop_
 _atom_site_type_symbol
 _atom_site_label
 _atom_site_symmetry_multiplicity
 _atom_site_fract_x
 _atom_site_fract_y
 _atom_site_fract_z
 _atom_site_occupancy
  Sr  Sr0  2  0.132569  0.642118  0.291392  1
  Sr  Sr1  2  0.183880  0.751737  0.807147  1
  Sr  Sr2  2  0.281958  0.116498  0.394512  1
  Sr  Sr3  2  0.354238  0.247539  0.890341  1
  B  B4  1  0.500000  0.500000  0.500000  1
