# generated using pymatgen
data_Sr3B10
_symmetry_space_group_name_H-M   P1
_cell_length_a   4.66252583
_cell_length_b   4.66834996
_cell_length_c   6.35225868
_cell_angle_alpha   96.16889893
_cell_angle_beta   102.89341515
_cell_angle_gamma   119.22452925
_symmetry_Int_Tables_number   1
_chemical_formula_structural   Sr3B10
_chemical_formula_sum   'Sr3 B10'
_cell_volume   113.75418363
_cell_formula_units_Z   1
loop_
 _symmetry_equiv_pos_site_id
 _symmetry_equiv_pos_as_xyz
  1  'x, y, z'
loop_
 _atom_site_type_symbol
 _atom_site_label
 _atom_site_symmetry_multiplicity
 _atom_site_fract_x
 _atom_site_fract_y
 _atom_site_fract_z
 _atom_site_occupancy
  Sr  Sr0  1  0.234444  0.269092  0.476667  1
  Sr  Sr1  1  0.585548  0.943567  0.513181  1
  Sr  Sr2  1  0.977108  0.995419  0.991230  1
  B  B3  1  0.353453  0.843623  0.833313  1
  B  B4  1  0.358882  0.724906  0.094493  1
  B  B5  1  0.375728  0.499898  0.871974  1
  B  B6  1  0.586187  0.524478  0.149025  1
  B  B7  1  0.598218  0.292831  0.904287  1
  B  B8  1  0.608457  0.169625  0.160196  1
  B  B9  1  0.852407  0.553566  0.377720  1
  B  B10  1  0.967707  0.516406  0.148415  1
  B  B11  1  0.972059  0.671785  0.633249  1
  B  B12  1  0.994008  0.478905  0.840899  1
