# generated using pymatgen
data_Sr5B7
_symmetry_space_group_name_H-M   P1
_cell_length_a   4.59199934
_cell_length_b   5.18001556
_cell_length_c   6.09585429
_cell_angle_alpha   106.25612505
_cell_angle_beta   100.97389627
_cell_angle_gamma   90.36747579
_symmetry_Int_Tables_number   1
_chemical_formula_structural   Sr5B7
_chemical_formula_sum   'Sr5 B7'
_cell_volume   136.38279353
_cell_formula_units_Z   1
loop_
 _symmetry_equiv_pos_site_id
 _symmetry_equiv_pos_as_xyz
  1  'x, y, z'
loop_
 _atom_site_type_symbol
 _atom_site_label
 _atom_site_symmetry_multiplicity
 _atom_site_fract_x
 _atom_site_fract_y
 _atom_site_fract_z
 _atom_site_occupancy
  Sr  Sr0  1  0.175410  0.793713  0.758333  1
  Sr  Sr1  1  0.317006  0.806816  0.284413  1
  Sr  Sr2  1  0.643528  0.490714  0.535041  1
  Sr  Sr3  1  0.661044  0.086294  0.734645  1
  Sr  Sr4  1  0.771310  0.567168  0.085204  1
  B  B5  1  0.126327  0.312524  0.358694  1
  B  B6  1  0.135166  0.243017  0.599447  1
  B  B7  1  0.203535  0.358197  0.875882  1
  B  B8  1  0.272620  0.239060  0.108427  1
  B  B9  1  0.605049  0.106217  0.152209  1
  B  B10  1  0.870796  0.056770  0.372833  1
  B  B11  1  0.943829  0.074036  0.115668  1
