# generated using pymatgen
data_Sr4B11
_symmetry_space_group_name_H-M   Pm
_cell_length_a   5.57537399
_cell_length_b   4.29931597
_cell_length_c   5.78297272
_cell_angle_alpha   90.00000000
_cell_angle_beta   97.49762296
_cell_angle_gamma   90.00000000
_symmetry_Int_Tables_number   6
_chemical_formula_structural   Sr4B11
_chemical_formula_sum   'Sr4 B11'
_cell_volume   137.43439982
_cell_formula_units_Z   1
loop_
 _symmetry_equiv_pos_site_id
 _symmetry_equiv_pos_as_xyz
  1  'x, y, z'
  2  'x, -y, z'
loop_
 _atom_site_type_symbol
 _atom_site_label
 _atom_site_symmetry_multiplicity
 _atom_site_fract_x
 _atom_site_fract_y
 _atom_site_fract_z
 _atom_site_occupancy
  Sr  Sr0  1  0.103418  0.500000  0.113885  1
  Sr  Sr1  1  0.221640  0.000000  0.400515  1
  Sr  Sr2  1  0.332309  0.000000  0.898214  1
  Sr  Sr3  1  0.638475  0.500000  0.997244  1
  B  B4  2  0.601282  0.202640  0.604752  1
  B  B5  2  0.802631  0.293619  0.413658  1
  B  B6  2  0.911806  0.205691  0.707161  1
  B  B7  1  0.081243  0.500000  0.624919  1
  B  B8  1  0.384922  0.500000  0.614967  1
  B  B9  1  0.534579  0.500000  0.389409  1
  B  B10  1  0.800618  0.000000  0.207741  1
  B  B11  1  0.866283  0.000000  0.941505  1
