# generated using pymatgen
data_SrB10
_symmetry_space_group_name_H-M   Amm2
_cell_length_a   2.97086368
_cell_length_b   4.19455717
_cell_length_c   11.81813084
_cell_angle_alpha   90.00000000
_cell_angle_beta   90.00000000
_cell_angle_gamma   90.00000000
_symmetry_Int_Tables_number   38
_chemical_formula_structural   SrB10
_chemical_formula_sum   'Sr2 B20'
_cell_volume   147.27113602
_cell_formula_units_Z   2
loop_
 _symmetry_equiv_pos_site_id
 _symmetry_equiv_pos_as_xyz
  1  'x, y, z'
  2  '-x, -y, z'
  3  '-x, y, z'
  4  'x, -y, z'
  5  'x, y+1/2, z+1/2'
  6  '-x, -y+1/2, z+1/2'
  7  '-x, y+1/2, z+1/2'
  8  'x, -y+1/2, z+1/2'
loop_
 _atom_site_type_symbol
 _atom_site_label
 _atom_site_symmetry_multiplicity
 _atom_site_fract_x
 _atom_site_fract_y
 _atom_site_fract_z
 _atom_site_occupancy
  Sr  Sr0  2  0.500000  0.000000  0.527418  1
  B  B1  4  0.000000  0.198222  0.700957  1
  B  B2  4  0.000000  0.203049  0.356777  1
  B  B3  4  0.500000  0.210108  0.281754  1
  B  B4  2  0.000000  0.000000  0.098218  1
  B  B5  2  0.000000  0.000000  0.957050  1
  B  B6  2  0.500000  0.000000  0.164708  1
  B  B7  2  0.500000  0.000000  0.884548  1
