# generated using pymatgen
data_Sr9B4
_symmetry_space_group_name_H-M   P1
_cell_length_a   5.74790619
_cell_length_b   5.96797235
_cell_length_c   6.87978499
_cell_angle_alpha   64.86952666
_cell_angle_beta   68.71276006
_cell_angle_gamma   83.71209199
_symmetry_Int_Tables_number   1
_chemical_formula_structural   Sr9B4
_chemical_formula_sum   'Sr9 B4'
_cell_volume   198.80391324
_cell_formula_units_Z   1
loop_
 _symmetry_equiv_pos_site_id
 _symmetry_equiv_pos_as_xyz
  1  'x, y, z'
loop_
 _atom_site_type_symbol
 _atom_site_label
 _atom_site_symmetry_multiplicity
 _atom_site_fract_x
 _atom_site_fract_y
 _atom_site_fract_z
 _atom_site_occupancy
  Sr  Sr0  1  0.032609  0.064376  0.625914  1
  Sr  Sr1  1  0.074614  0.765481  0.418312  1
  Sr  Sr2  1  0.233377  0.676256  0.879346  1
  Sr  Sr3  1  0.357215  0.273173  0.772473  1
  Sr  Sr4  1  0.450791  0.448646  0.328616  1
  Sr  Sr5  1  0.605987  0.902110  0.984683  1
  Sr  Sr6  1  0.717079  0.507615  0.824490  1
  Sr  Sr7  1  0.908190  0.112121  0.108939  1
  Sr  Sr8  1  0.912529  0.436090  0.309679  1
  B  B9  1  0.329268  0.186943  0.176823  1
  B  B10  1  0.458362  0.007392  0.359816  1
  B  B11  1  0.576982  0.746451  0.468336  1
  B  B12  1  0.611894  0.983263  0.538406  1
