# generated using pymatgen
data_Sr9B5
_symmetry_space_group_name_H-M   Amm2
_cell_length_a   2.97713029
_cell_length_b   19.86543694
_cell_length_c   6.94921264
_cell_angle_alpha   90.00000000
_cell_angle_beta   90.00000000
_cell_angle_gamma   90.00000000
_symmetry_Int_Tables_number   38
_chemical_formula_structural   Sr9B5
_chemical_formula_sum   'Sr18 B10'
_cell_volume   410.99029259
_cell_formula_units_Z   2
loop_
 _symmetry_equiv_pos_site_id
 _symmetry_equiv_pos_as_xyz
  1  'x, y, z'
  2  '-x, -y, z'
  3  '-x, y, z'
  4  'x, -y, z'
  5  'x, y+1/2, z+1/2'
  6  '-x, -y+1/2, z+1/2'
  7  '-x, y+1/2, z+1/2'
  8  'x, -y+1/2, z+1/2'
loop_
 _atom_site_type_symbol
 _atom_site_label
 _atom_site_symmetry_multiplicity
 _atom_site_fract_x
 _atom_site_fract_y
 _atom_site_fract_z
 _atom_site_occupancy
  Sr  Sr0  4  0.000000  0.067871  0.804732  1
  Sr  Sr1  4  0.000000  0.089299  0.194332  1
  Sr  Sr2  4  0.000000  0.181475  0.601631  1
  Sr  Sr3  4  0.500000  0.207529  0.279384  1
  Sr  Sr4  2  0.500000  0.000000  0.448491  1
  B  B5  4  0.000000  0.193635  0.963678  1
  B  B6  4  0.500000  0.171985  0.928964  1
  B  B7  2  0.500000  0.000000  0.050262  1
