# generated using pymatgen
data_Sr7B6
_symmetry_space_group_name_H-M   Cm
_cell_length_a   8.03668302
_cell_length_b   4.16968496
_cell_length_c   10.54732858
_cell_angle_alpha   90.00000000
_cell_angle_beta   99.03043873
_cell_angle_gamma   90.00000000
_symmetry_Int_Tables_number   8
_chemical_formula_structural   Sr7B6
_chemical_formula_sum   'Sr14 B12'
_cell_volume   349.06465801
_cell_formula_units_Z   2
loop_
 _symmetry_equiv_pos_site_id
 _symmetry_equiv_pos_as_xyz
  1  'x, y, z'
  2  'x, -y, z'
  3  'x+1/2, y+1/2, z'
  4  'x+1/2, -y+1/2, z'
loop_
 _atom_site_type_symbol
 _atom_site_label
 _atom_site_symmetry_multiplicity
 _atom_site_fract_x
 _atom_site_fract_y
 _atom_site_fract_z
 _atom_site_occupancy
  Sr  Sr0  2  0.030670  0.000000  0.968373  1
  Sr  Sr1  2  0.081342  0.000000  0.255589  1
  Sr  Sr2  2  0.183632  0.500000  0.844563  1
  Sr  Sr3  2  0.333440  0.000000  0.714473  1
  Sr  Sr4  2  0.387477  0.000000  0.093171  1
  Sr  Sr5  2  0.433660  0.000000  0.370756  1
  Sr  Sr6  2  0.479681  0.500000  0.608233  1
  B  B7  4  0.205651  0.192705  0.488872  1
  B  B8  2  0.152012  0.500000  0.576891  1
  B  B9  2  0.213851  0.500000  0.097464  1
  B  B10  2  0.253897  0.500000  0.245351  1
  B  B11  2  0.257098  0.500000  0.399575  1
