# generated using pymatgen
data_Sr7B3
_symmetry_space_group_name_H-M   P1
_cell_length_a   4.70890802
_cell_length_b   5.87786144
_cell_length_c   6.49238787
_cell_angle_alpha   110.91466581
_cell_angle_beta   93.60692915
_cell_angle_gamma   110.02665032
_symmetry_Int_Tables_number   1
_chemical_formula_structural   Sr7B3
_chemical_formula_sum   'Sr7 B3'
_cell_volume   154.15883621
_cell_formula_units_Z   1
loop_
 _symmetry_equiv_pos_site_id
 _symmetry_equiv_pos_as_xyz
  1  'x, y, z'
loop_
 _atom_site_type_symbol
 _atom_site_label
 _atom_site_symmetry_multiplicity
 _atom_site_fract_x
 _atom_site_fract_y
 _atom_site_fract_z
 _atom_site_occupancy
  Sr  Sr0  1  0.010956  0.771420  0.223416  1
  Sr  Sr1  1  0.136702  0.327591  0.159900  1
  Sr  Sr2  1  0.527206  0.893150  0.016774  1
  Sr  Sr3  1  0.537793  0.387466  0.880281  1
  Sr  Sr4  1  0.558827  0.963129  0.531492  1
  Sr  Sr5  1  0.671043  0.373006  0.407275  1
  Sr  Sr6  1  0.988472  0.864456  0.741473  1
  B  B7  1  0.050054  0.435671  0.759885  1
  B  B8  1  0.126020  0.227314  0.531119  1
  B  B9  1  0.284372  0.549259  0.606692  1
