# generated using pymatgen
data_Sr7B6
_symmetry_space_group_name_H-M   Cm
_cell_length_a   10.83226714
_cell_length_b   4.14536384
_cell_length_c   7.59059119
_cell_angle_alpha   90.00000000
_cell_angle_beta   92.15359815
_cell_angle_gamma   90.00000000
_symmetry_Int_Tables_number   8
_chemical_formula_structural   Sr7B6
_chemical_formula_sum   'Sr14 B12'
_cell_volume   340.60479556
_cell_formula_units_Z   2
loop_
 _symmetry_equiv_pos_site_id
 _symmetry_equiv_pos_as_xyz
  1  'x, y, z'
  2  'x, -y, z'
  3  'x+1/2, y+1/2, z'
  4  'x+1/2, -y+1/2, z'
loop_
 _atom_site_type_symbol
 _atom_site_label
 _atom_site_symmetry_multiplicity
 _atom_site_fract_x
 _atom_site_fract_y
 _atom_site_fract_z
 _atom_site_occupancy
  Sr  Sr0  2  0.096671  0.500000  0.484389  1
  Sr  Sr1  2  0.111028  0.000000  0.739154  1
  Sr  Sr2  2  0.123028  0.000000  0.231991  1
  Sr  Sr3  2  0.199580  0.500000  0.984309  1
  Sr  Sr4  2  0.353164  0.000000  0.480631  1
  Sr  Sr5  2  0.360040  0.500000  0.694842  1
  Sr  Sr6  2  0.375142  0.500000  0.268196  1
  B  B7  4  0.451420  0.274238  0.982019  1
  B  B8  2  0.339909  0.000000  0.871935  1
  B  B9  2  0.343966  0.000000  0.088628  1
  B  B10  2  0.486154  0.000000  0.811204  1
  B  B11  2  0.492654  0.000000  0.153446  1
