# generated using pymatgen
data_Sr10B3
_symmetry_space_group_name_H-M   P1
_cell_length_a   4.58775247
_cell_length_b   7.37715116
_cell_length_c   7.41387601
_cell_angle_alpha   61.06251237
_cell_angle_beta   74.80836103
_cell_angle_gamma   85.11735892
_symmetry_Int_Tables_number   1
_chemical_formula_structural   Sr10B3
_chemical_formula_sum   'Sr10 B3'
_cell_volume   211.65963132
_cell_formula_units_Z   1
loop_
 _symmetry_equiv_pos_site_id
 _symmetry_equiv_pos_as_xyz
  1  'x, y, z'
loop_
 _atom_site_type_symbol
 _atom_site_label
 _atom_site_symmetry_multiplicity
 _atom_site_fract_x
 _atom_site_fract_y
 _atom_site_fract_z
 _atom_site_occupancy
  Sr  Sr0  1  0.024146  0.946336  0.207233  1
  Sr  Sr1  1  0.049121  0.562521  0.005434  1
  Sr  Sr2  1  0.265454  0.349998  0.788019  1
  Sr  Sr3  1  0.367905  0.948732  0.694058  1
  Sr  Sr4  1  0.461720  0.753429  0.453759  1
  Sr  Sr5  1  0.500048  0.689163  0.098152  1
  Sr  Sr6  1  0.550706  0.239044  0.142794  1
  Sr  Sr7  1  0.788578  0.082261  0.856504  1
  Sr  Sr8  1  0.939084  0.510586  0.477727  1
  Sr  Sr9  1  0.986043  0.181506  0.412040  1
  B  B10  1  0.480414  0.351195  0.437396  1
  B  B11  1  0.667635  0.573615  0.795248  1
  B  B12  1  0.894176  0.776110  0.649203  1
