# generated using pymatgen
data_Sr2B11
_symmetry_space_group_name_H-M   C2/m
_cell_length_a   6.36157878
_cell_length_b   7.49458052
_cell_length_c   4.85442215
_cell_angle_alpha   90.00000000
_cell_angle_beta   121.06666523
_cell_angle_gamma   90.00000000
_symmetry_Int_Tables_number   12
_chemical_formula_structural   Sr2B11
_chemical_formula_sum   'Sr4 B22'
_cell_volume   198.24915854
_cell_formula_units_Z   2
loop_
 _symmetry_equiv_pos_site_id
 _symmetry_equiv_pos_as_xyz
  1  'x, y, z'
  2  '-x, -y, -z'
  3  '-x, y, -z'
  4  'x, -y, z'
  5  'x+1/2, y+1/2, z'
  6  '-x+1/2, -y+1/2, -z'
  7  '-x+1/2, y+1/2, -z'
  8  'x+1/2, -y+1/2, z'
loop_
 _atom_site_type_symbol
 _atom_site_label
 _atom_site_symmetry_multiplicity
 _atom_site_fract_x
 _atom_site_fract_y
 _atom_site_fract_z
 _atom_site_occupancy
  Sr  Sr0  4  0.223712  0.500000  0.815722  1
  B  B1  8  0.022530  0.211327  0.343190  1
  B  B2  8  0.233013  0.375139  0.307230  1
  B  B3  4  0.000000  0.280720  0.000000  1
  B  B4  2  0.000000  0.000000  0.500000  1
