# generated using pymatgen
data_SrB9
_symmetry_space_group_name_H-M   Imm2
_cell_length_a   2.88469967
_cell_length_b   5.63086531
_cell_length_c   8.54021253
_cell_angle_alpha   90.00000000
_cell_angle_beta   90.00000000
_cell_angle_gamma   90.00000000
_symmetry_Int_Tables_number   44
_chemical_formula_structural   SrB9
_chemical_formula_sum   'Sr2 B18'
_cell_volume   138.72170652
_cell_formula_units_Z   2
loop_
 _symmetry_equiv_pos_site_id
 _symmetry_equiv_pos_as_xyz
  1  'x, y, z'
  2  '-x, -y, z'
  3  '-x, y, z'
  4  'x, -y, z'
  5  'x+1/2, y+1/2, z+1/2'
  6  '-x+1/2, -y+1/2, z+1/2'
  7  '-x+1/2, y+1/2, z+1/2'
  8  'x+1/2, -y+1/2, z+1/2'
loop_
 _atom_site_type_symbol
 _atom_site_label
 _atom_site_symmetry_multiplicity
 _atom_site_fract_x
 _atom_site_fract_y
 _atom_site_fract_z
 _atom_site_occupancy
  Sr  Sr0  2  0.000000  0.500000  0.391616  1
  B  B1  4  0.000000  0.155148  0.642425  1
  B  B2  4  0.000000  0.156332  0.145714  1
  B  B3  4  0.000000  0.344508  0.976687  1
  B  B4  4  0.000000  0.353064  0.776322  1
  B  B5  2  0.000000  0.000000  0.475048  1
