# generated using pymatgen
data_Sr4B5
_symmetry_space_group_name_H-M   Pm
_cell_length_a   4.92044575
_cell_length_b   2.93154484
_cell_length_c   7.45326154
_cell_angle_alpha   90.00000000
_cell_angle_beta   96.28764396
_cell_angle_gamma   90.00000000
_symmetry_Int_Tables_number   6
_chemical_formula_structural   Sr4B5
_chemical_formula_sum   'Sr4 B5'
_cell_volume   106.86291211
_cell_formula_units_Z   1
loop_
 _symmetry_equiv_pos_site_id
 _symmetry_equiv_pos_as_xyz
  1  'x, y, z'
  2  'x, -y, z'
loop_
 _atom_site_type_symbol
 _atom_site_label
 _atom_site_symmetry_multiplicity
 _atom_site_fract_x
 _atom_site_fract_y
 _atom_site_fract_z
 _atom_site_occupancy
  Sr  Sr0  1  0.065244  0.000000  0.792311  1
  Sr  Sr1  1  0.134464  0.500000  0.458182  1
  Sr  Sr2  1  0.595964  0.000000  0.949378  1
  Sr  Sr3  1  0.659886  0.000000  0.307108  1
  B  B4  1  0.135804  0.000000  0.148440  1
  B  B5  1  0.298564  0.500000  0.130976  1
  B  B6  1  0.544548  0.000000  0.615534  1
  B  B7  1  0.631446  0.500000  0.639094  1
  B  B8  1  0.968316  0.500000  0.095676  1
