# generated using pymatgen
data_Sr9B5
_symmetry_space_group_name_H-M   P1
_cell_length_a   5.72270283
_cell_length_b   5.77179628
_cell_length_c   7.06595898
_cell_angle_alpha   109.32473340
_cell_angle_beta   90.99392162
_cell_angle_gamma   108.64528844
_symmetry_Int_Tables_number   1
_chemical_formula_structural   Sr9B5
_chemical_formula_sum   'Sr9 B5'
_cell_volume   206.69314476
_cell_formula_units_Z   1
loop_
 _symmetry_equiv_pos_site_id
 _symmetry_equiv_pos_as_xyz
  1  'x, y, z'
loop_
 _atom_site_type_symbol
 _atom_site_label
 _atom_site_symmetry_multiplicity
 _atom_site_fract_x
 _atom_site_fract_y
 _atom_site_fract_z
 _atom_site_occupancy
  Sr  Sr0  1  0.173183  0.028083  0.978593  1
  Sr  Sr1  1  0.280106  0.575991  0.125754  1
  Sr  Sr2  1  0.412017  0.347319  0.426564  1
  Sr  Sr3  1  0.441908  0.933917  0.505976  1
  Sr  Sr4  1  0.528795  0.754356  0.797546  1
  Sr  Sr5  1  0.684876  0.216088  0.097288  1
  Sr  Sr6  1  0.843796  0.710069  0.128325  1
  Sr  Sr7  1  0.915116  0.193247  0.420896  1
  Sr  Sr8  1  0.956738  0.753682  0.569467  1
  B  B9  1  0.053721  0.512162  0.791361  1
  B  B10  1  0.201532  0.288194  0.740474  1
  B  B11  1  0.474463  0.319531  0.822672  1
  B  B12  1  0.746677  0.380734  0.755260  1
  B  B13  1  0.917724  0.205616  0.795151  1
