# generated using pymatgen
data_Sr8B
_symmetry_space_group_name_H-M   Cm
_cell_length_a   13.14875167
_cell_length_b   3.09379977
_cell_length_c   8.05186429
_cell_angle_alpha   90.00000000
_cell_angle_beta   100.29839079
_cell_angle_gamma   90.00000000
_symmetry_Int_Tables_number   8
_chemical_formula_structural   Sr8B
_chemical_formula_sum   'Sr16 B2'
_cell_volume   322.26990089
_cell_formula_units_Z   2
loop_
 _symmetry_equiv_pos_site_id
 _symmetry_equiv_pos_as_xyz
  1  'x, y, z'
  2  'x, -y, z'
  3  'x+1/2, y+1/2, z'
  4  'x+1/2, -y+1/2, z'
loop_
 _atom_site_type_symbol
 _atom_site_label
 _atom_site_symmetry_multiplicity
 _atom_site_fract_x
 _atom_site_fract_y
 _atom_site_fract_z
 _atom_site_occupancy
  Sr  Sr0  2  0.020126  0.500000  0.095893  1
  Sr  Sr1  2  0.059684  0.000000  0.390756  1
  Sr  Sr2  2  0.114679  0.500000  0.786184  1
  Sr  Sr3  2  0.205349  0.000000  0.090094  1
  Sr  Sr4  2  0.242398  0.000000  0.604956  1
  Sr  Sr5  2  0.353188  0.500000  0.942817  1
  Sr  Sr6  2  0.367146  0.000000  0.346912  1
  Sr  Sr7  2  0.440387  0.500000  0.655792  1
  B  B8  2  0.207807  0.500000  0.342060  1
