# generated using pymatgen
data_Sr7B6
_symmetry_space_group_name_H-M   P-1
_cell_length_a   5.13278799
_cell_length_b   5.20235459
_cell_length_c   6.60231671
_cell_angle_alpha   91.29791982
_cell_angle_beta   97.49432364
_cell_angle_gamma   100.42485960
_symmetry_Int_Tables_number   2
_chemical_formula_structural   Sr7B6
_chemical_formula_sum   'Sr7 B6'
_cell_volume   171.71413609
_cell_formula_units_Z   1
loop_
 _symmetry_equiv_pos_site_id
 _symmetry_equiv_pos_as_xyz
  1  'x, y, z'
  2  '-x, -y, -z'
loop_
 _atom_site_type_symbol
 _atom_site_label
 _atom_site_symmetry_multiplicity
 _atom_site_fract_x
 _atom_site_fract_y
 _atom_site_fract_z
 _atom_site_occupancy
  Sr  Sr0  2  0.166097  0.143442  0.735038  1
  Sr  Sr1  2  0.211828  0.376625  0.389001  1
  Sr  Sr2  2  0.324992  0.934756  0.138260  1
  Sr  Sr3  1  0.000000  0.500000  0.000000  1
  B  B4  2  0.326898  0.688446  0.713688  1
  B  B5  2  0.378426  0.866137  0.513815  1
  B  B6  2  0.489233  0.576828  0.901260  1
