# generated using pymatgen
data_SrB8
_symmetry_space_group_name_H-M   Amm2
_cell_length_a   4.07350669
_cell_length_b   10.31493952
_cell_length_c   2.97598734
_cell_angle_alpha   90.00000000
_cell_angle_beta   90.00000000
_cell_angle_gamma   90.00000000
_symmetry_Int_Tables_number   38
_chemical_formula_structural   SrB8
_chemical_formula_sum   'Sr2 B16'
_cell_volume   125.04496202
_cell_formula_units_Z   2
loop_
 _symmetry_equiv_pos_site_id
 _symmetry_equiv_pos_as_xyz
  1  'x, y, z'
  2  '-x, -y, z'
  3  '-x, y, z'
  4  'x, -y, z'
  5  'x, y+1/2, z+1/2'
  6  '-x, -y+1/2, z+1/2'
  7  '-x, y+1/2, z+1/2'
  8  'x, -y+1/2, z+1/2'
loop_
 _atom_site_type_symbol
 _atom_site_label
 _atom_site_symmetry_multiplicity
 _atom_site_fract_x
 _atom_site_fract_y
 _atom_site_fract_z
 _atom_site_occupancy
  Sr  Sr0  2  0.000000  0.000000  0.002186  1
  B  B1  8  0.208921  0.201681  0.542610  1
  B  B2  4  0.500000  0.081030  0.460295  1
  B  B3  4  0.500000  0.163912  0.956060  1
