# generated using pymatgen
data_SrB6
_symmetry_space_group_name_H-M   C2/m
_cell_length_a   8.98007129
_cell_length_b   2.84308871
_cell_length_c   4.18377457
_cell_angle_alpha   90.00000000
_cell_angle_beta   103.89477908
_cell_angle_gamma   90.00000000
_symmetry_Int_Tables_number   12
_chemical_formula_structural   SrB6
_chemical_formula_sum   'Sr2 B12'
_cell_volume   103.69090520
_cell_formula_units_Z   2
loop_
 _symmetry_equiv_pos_site_id
 _symmetry_equiv_pos_as_xyz
  1  'x, y, z'
  2  '-x, -y, -z'
  3  '-x, y, -z'
  4  'x, -y, z'
  5  'x+1/2, y+1/2, z'
  6  '-x+1/2, -y+1/2, -z'
  7  '-x+1/2, y+1/2, -z'
  8  'x+1/2, -y+1/2, z'
loop_
 _atom_site_type_symbol
 _atom_site_label
 _atom_site_symmetry_multiplicity
 _atom_site_fract_x
 _atom_site_fract_y
 _atom_site_fract_z
 _atom_site_occupancy
  Sr  Sr0  2  0.000000  0.000000  0.000000  1
  B  B1  4  0.103039  0.500000  0.546920  1
  B  B2  4  0.213061  0.500000  0.918686  1
  B  B3  4  0.236979  0.000000  0.655596  1
