# generated using pymatgen
data_Sr4B9
_symmetry_space_group_name_H-M   P2/m
_cell_length_a   2.90696088
_cell_length_b   4.12195355
_cell_length_c   11.10074974
_cell_angle_alpha   90.00000000
_cell_angle_beta   97.37651479
_cell_angle_gamma   90.00000000
_symmetry_Int_Tables_number   10
_chemical_formula_structural   Sr4B9
_chemical_formula_sum   'Sr4 B9'
_cell_volume   131.91232068
_cell_formula_units_Z   1
loop_
 _symmetry_equiv_pos_site_id
 _symmetry_equiv_pos_as_xyz
  1  'x, y, z'
  2  '-x, -y, -z'
  3  '-x, y, -z'
  4  'x, -y, z'
loop_
 _atom_site_type_symbol
 _atom_site_label
 _atom_site_symmetry_multiplicity
 _atom_site_fract_x
 _atom_site_fract_y
 _atom_site_fract_z
 _atom_site_occupancy
  Sr  Sr0  2  0.077715  0.000000  0.138316  1
  Sr  Sr1  2  0.288697  0.000000  0.619636  1
  B  B2  2  0.159260  0.500000  0.302620  1
  B  B3  2  0.233921  0.500000  0.457871  1
  B  B4  2  0.380066  0.500000  0.772537  1
  B  B5  2  0.459467  0.500000  0.925502  1
  B  B6  1  0.000000  0.500000  0.000000  1
