# generated using pymatgen
data_Sr11B5
_symmetry_space_group_name_H-M   P1
_cell_length_a   5.97875811
_cell_length_b   6.46666086
_cell_length_c   7.10267462
_cell_angle_alpha   97.47973817
_cell_angle_beta   112.45105977
_cell_angle_gamma   98.79269048
_symmetry_Int_Tables_number   1
_chemical_formula_structural   Sr11B5
_chemical_formula_sum   'Sr11 B5'
_cell_volume   245.40892475
_cell_formula_units_Z   1
loop_
 _symmetry_equiv_pos_site_id
 _symmetry_equiv_pos_as_xyz
  1  'x, y, z'
loop_
 _atom_site_type_symbol
 _atom_site_label
 _atom_site_symmetry_multiplicity
 _atom_site_fract_x
 _atom_site_fract_y
 _atom_site_fract_z
 _atom_site_occupancy
  Sr  Sr0  1  0.016471  0.302509  0.517608  1
  Sr  Sr1  1  0.072213  0.770432  0.946706  1
  Sr  Sr2  1  0.201351  0.997373  0.353949  1
  Sr  Sr3  1  0.239545  0.373390  0.951073  1
  Sr  Sr4  1  0.450595  0.662532  0.673252  1
  Sr  Sr5  1  0.511038  0.353637  0.362952  1
  Sr  Sr6  1  0.541945  0.983186  0.111519  1
  Sr  Sr7  1  0.709002  0.598837  0.071895  1
  Sr  Sr8  1  0.718493  0.002743  0.625628  1
  Sr  Sr9  1  0.875711  0.213043  0.040995  1
  Sr  Sr10  1  0.958941  0.719072  0.515721  1
  B  B11  1  0.167972  0.573765  0.282529  1
  B  B12  1  0.326431  0.053435  0.742668  1
  B  B13  1  0.425723  0.699239  0.292500  1
  B  B14  1  0.496986  0.272058  0.731634  1
  B  B15  1  0.762304  0.408127  0.745282  1
