# generated using pymatgen
data_Sr4B3
_symmetry_space_group_name_H-M   P1
_cell_length_a   3.02450718
_cell_length_b   7.31682620
_cell_length_c   8.73983981
_cell_angle_alpha   91.92106552
_cell_angle_beta   93.51026914
_cell_angle_gamma   90.14256339
_symmetry_Int_Tables_number   1
_chemical_formula_structural   Sr4B3
_chemical_formula_sum   'Sr8 B6'
_cell_volume   192.93747959
_cell_formula_units_Z   2
loop_
 _symmetry_equiv_pos_site_id
 _symmetry_equiv_pos_as_xyz
  1  'x, y, z'
loop_
 _atom_site_type_symbol
 _atom_site_label
 _atom_site_symmetry_multiplicity
 _atom_site_fract_x
 _atom_site_fract_y
 _atom_site_fract_z
 _atom_site_occupancy
  Sr  Sr0  1  0.308029  0.113776  0.217881  1
  Sr  Sr1  1  0.338063  0.266595  0.516385  1
  Sr  Sr2  1  0.403094  0.761968  0.936308  1
  Sr  Sr3  1  0.449732  0.177178  0.922635  1
  Sr  Sr4  1  0.829977  0.630434  0.521454  1
  Sr  Sr5  1  0.879402  0.759155  0.214175  1
  Sr  Sr6  1  0.894710  0.961037  0.711463  1
  Sr  Sr7  1  0.906575  0.476356  0.817714  1
  B  B8  1  0.287649  0.480091  0.277958  1
  B  B9  1  0.344348  0.915905  0.460836  1
  B  B10  1  0.475687  0.474455  0.098762  1
  B  B11  1  0.788242  0.399099  0.279943  1
  B  B12  1  0.838348  0.978021  0.438633  1
  B  B13  1  0.977305  0.401803  0.102376  1
