# generated using pymatgen
data_Sr5B11
_symmetry_space_group_name_H-M   P1
_cell_length_a   4.20281394
_cell_length_b   6.28146571
_cell_length_c   6.54133445
_cell_angle_alpha   91.76311552
_cell_angle_beta   103.37324043
_cell_angle_gamma   106.28313145
_symmetry_Int_Tables_number   1
_chemical_formula_structural   Sr5B11
_chemical_formula_sum   'Sr5 B11'
_cell_volume   160.42074763
_cell_formula_units_Z   1
loop_
 _symmetry_equiv_pos_site_id
 _symmetry_equiv_pos_as_xyz
  1  'x, y, z'
loop_
 _atom_site_type_symbol
 _atom_site_label
 _atom_site_symmetry_multiplicity
 _atom_site_fract_x
 _atom_site_fract_y
 _atom_site_fract_z
 _atom_site_occupancy
  Sr  Sr0  1  0.174360  0.198618  0.471277  1
  Sr  Sr1  1  0.191049  0.523665  0.068816  1
  Sr  Sr2  1  0.495949  0.958380  0.274396  1
  Sr  Sr3  1  0.522043  0.546860  0.795028  1
  Sr  Sr4  1  0.616521  0.019731  0.724991  1
  B  B5  1  0.103035  0.859412  0.861918  1
  B  B6  1  0.168810  0.611343  0.443588  1
  B  B7  1  0.234742  0.129083  0.956548  1
  B  B8  1  0.594071  0.609993  0.437051  1
  B  B9  1  0.634770  0.263331  0.076324  1
  B  B10  1  0.745282  0.435018  0.294287  1
  B  B11  1  0.847699  0.441321  0.558307  1
  B  B12  1  0.870928  0.715022  0.273965  1
  B  B13  1  0.896568  0.867170  0.064889  1
  B  B14  1  0.924642  0.134376  0.071360  1
  B  B15  1  0.999490  0.722921  0.625315  1
