# generated using pymatgen
data_Sr5B9
_symmetry_space_group_name_H-M   P1
_cell_length_a   4.98288531
_cell_length_b   5.44508721
_cell_length_c   5.78089144
_cell_angle_alpha   98.67636977
_cell_angle_beta   104.19682825
_cell_angle_gamma   92.42171819
_symmetry_Int_Tables_number   1
_chemical_formula_structural   Sr5B9
_chemical_formula_sum   'Sr5 B9'
_cell_volume   149.80326373
_cell_formula_units_Z   1
loop_
 _symmetry_equiv_pos_site_id
 _symmetry_equiv_pos_as_xyz
  1  'x, y, z'
loop_
 _atom_site_type_symbol
 _atom_site_label
 _atom_site_symmetry_multiplicity
 _atom_site_fract_x
 _atom_site_fract_y
 _atom_site_fract_z
 _atom_site_occupancy
  Sr  Sr0  1  0.002028  0.219006  0.485779  1
  Sr  Sr1  1  0.039841  0.345099  0.985731  1
  Sr  Sr2  1  0.328567  0.867828  0.135903  1
  Sr  Sr3  1  0.813758  0.698348  0.375467  1
  Sr  Sr4  1  0.818476  0.833954  0.838151  1
  B  B5  1  0.297733  0.619185  0.734300  1
  B  B6  1  0.319388  0.880757  0.626943  1
  B  B7  1  0.329716  0.578282  0.458228  1
  B  B8  1  0.469001  0.311433  0.355692  1
  B  B9  1  0.477708  0.163561  0.825913  1
  B  B10  1  0.519936  0.098750  0.553627  1
  B  B11  1  0.529643  0.487658  0.932505  1
  B  B12  1  0.544826  0.406892  0.651507  1
  B  B13  1  0.580130  0.271157  0.111169  1
