# generated using pymatgen
data_SrB9
_symmetry_space_group_name_H-M   P1
_cell_length_a   2.85641504
_cell_length_b   4.44548140
_cell_length_c   5.83576789
_cell_angle_alpha   73.71822138
_cell_angle_beta   80.64531251
_cell_angle_gamma   86.98899257
_symmetry_Int_Tables_number   1
_chemical_formula_structural   SrB9
_chemical_formula_sum   'Sr1 B9'
_cell_volume   70.18357507
_cell_formula_units_Z   1
loop_
 _symmetry_equiv_pos_site_id
 _symmetry_equiv_pos_as_xyz
  1  'x, y, z'
loop_
 _atom_site_type_symbol
 _atom_site_label
 _atom_site_symmetry_multiplicity
 _atom_site_fract_x
 _atom_site_fract_y
 _atom_site_fract_z
 _atom_site_occupancy
  Sr  Sr0  1  0.865439  0.939050  0.050663  1
  B  B1  1  0.180028  0.541541  0.435245  1
  B  B2  1  0.306957  0.375865  0.199679  1
  B  B3  1  0.406284  0.497975  0.895429  1
  B  B4  1  0.443022  0.881185  0.706268  1
  B  B5  1  0.476150  0.274655  0.675491  1
  B  B6  1  0.498846  0.038667  0.419586  1
  B  B7  1  0.716000  0.396950  0.360683  1
  B  B8  1  0.963657  0.496769  0.730467  1
  B  B9  1  0.992174  0.853778  0.513260  1
