# generated using pymatgen
data_Sr10B7
_symmetry_space_group_name_H-M   P1
_cell_length_a   5.27620190
_cell_length_b   5.34163483
_cell_length_c   8.52324859
_cell_angle_alpha   78.09224075
_cell_angle_beta   84.54825276
_cell_angle_gamma   88.80459763
_symmetry_Int_Tables_number   1
_chemical_formula_structural   Sr10B7
_chemical_formula_sum   'Sr10 B7'
_cell_volume   233.98275667
_cell_formula_units_Z   1
loop_
 _symmetry_equiv_pos_site_id
 _symmetry_equiv_pos_as_xyz
  1  'x, y, z'
loop_
 _atom_site_type_symbol
 _atom_site_label
 _atom_site_symmetry_multiplicity
 _atom_site_fract_x
 _atom_site_fract_y
 _atom_site_fract_z
 _atom_site_occupancy
  Sr  Sr0  1  0.019229  0.907798  0.520304  1
  Sr  Sr1  1  0.202192  0.436645  0.442351  1
  Sr  Sr2  1  0.283126  0.528635  0.753470  1
  Sr  Sr3  1  0.316365  0.048453  0.222124  1
  Sr  Sr4  1  0.460984  0.628372  0.058762  1
  Sr  Sr5  1  0.507462  0.019558  0.656189  1
  Sr  Sr6  1  0.590774  0.128772  0.933426  1
  Sr  Sr7  1  0.697549  0.306487  0.355114  1
  Sr  Sr8  1  0.870783  0.799813  0.199484  1
  Sr  Sr9  1  0.975845  0.376394  0.025864  1
  B  B10  1  0.014044  0.121683  0.758860  1
  B  B11  1  0.140172  0.951066  0.914827  1
  B  B12  1  0.534481  0.764734  0.440789  1
  B  B13  1  0.688465  0.570908  0.571366  1
  B  B14  1  0.765972  0.608147  0.767839  1
  B  B15  1  0.849861  0.360035  0.678802  1
  B  B16  1  0.909610  0.818057  0.839178  1
