# generated using pymatgen
data_Sr7B8
_symmetry_space_group_name_H-M   P1
_cell_length_a   4.61230355
_cell_length_b   4.62160780
_cell_length_c   8.96831869
_cell_angle_alpha   99.56614782
_cell_angle_beta   99.97099998
_cell_angle_gamma   100.70791773
_symmetry_Int_Tables_number   1
_chemical_formula_structural   Sr7B8
_chemical_formula_sum   'Sr7 B8'
_cell_volume   181.07696631
_cell_formula_units_Z   1
loop_
 _symmetry_equiv_pos_site_id
 _symmetry_equiv_pos_as_xyz
  1  'x, y, z'
loop_
 _atom_site_type_symbol
 _atom_site_label
 _atom_site_symmetry_multiplicity
 _atom_site_fract_x
 _atom_site_fract_y
 _atom_site_fract_z
 _atom_site_occupancy
  Sr  Sr0  1  0.227247  0.275907  0.659402  1
  Sr  Sr1  1  0.400443  0.311419  0.047959  1
  Sr  Sr2  1  0.441119  0.776039  0.888862  1
  Sr  Sr3  1  0.510261  0.430100  0.419570  1
  Sr  Sr4  1  0.642696  0.006059  0.578729  1
  Sr  Sr5  1  0.941630  0.305119  0.233574  1
  Sr  Sr6  1  0.965093  0.768727  0.067857  1
  B  B7  1  0.019135  0.724609  0.657153  1
  B  B8  1  0.069498  0.726686  0.484928  1
  B  B9  1  0.212324  0.862370  0.348021  1
  B  B10  1  0.503846  0.861855  0.254296  1
  B  B11  1  0.844598  0.262077  0.869659  1
  B  B12  1  0.846209  0.551486  0.770812  1
  B  B13  1  0.855556  0.851825  0.343559  1
  B  B14  1  0.943309  0.934980  0.812513  1
