# generated using pymatgen
data_Sr5B
_symmetry_space_group_name_H-M   Cm
_cell_length_a   30.20880700
_cell_length_b   4.37157447
_cell_length_c   3.11047940
_cell_angle_alpha   90.00000000
_cell_angle_beta   90.73440811
_cell_angle_gamma   90.00000000
_symmetry_Int_Tables_number   8
_chemical_formula_structural   Sr5B
_chemical_formula_sum   'Sr20 B4'
_cell_volume   410.73631937
_cell_formula_units_Z   4
loop_
 _symmetry_equiv_pos_site_id
 _symmetry_equiv_pos_as_xyz
  1  'x, y, z'
  2  'x, -y, z'
  3  'x+1/2, y+1/2, z'
  4  'x+1/2, -y+1/2, z'
loop_
 _atom_site_type_symbol
 _atom_site_label
 _atom_site_symmetry_multiplicity
 _atom_site_fract_x
 _atom_site_fract_y
 _atom_site_fract_z
 _atom_site_occupancy
  Sr  Sr0  2  0.033403  0.000000  0.019630  1
  Sr  Sr1  2  0.067694  0.500000  0.517805  1
  Sr  Sr2  2  0.125276  0.000000  0.596043  1
  Sr  Sr3  2  0.160379  0.500000  0.099922  1
  Sr  Sr4  2  0.218882  0.000000  0.951912  1
  Sr  Sr5  2  0.259025  0.500000  0.465229  1
  Sr  Sr6  2  0.342749  0.500000  0.982410  1
  Sr  Sr7  2  0.382690  0.000000  0.477719  1
  Sr  Sr8  2  0.441387  0.500000  0.521352  1
  Sr  Sr9  2  0.475640  0.000000  0.034033  1
  B  B10  2  0.300210  0.000000  0.975598  1
  B  B11  2  0.301310  0.000000  0.477037  1
