# generated using pymatgen
data_Sr5B6
_symmetry_space_group_name_H-M   P1
_cell_length_a   4.69150614
_cell_length_b   5.09062273
_cell_length_c   6.02003297
_cell_angle_alpha   85.04146268
_cell_angle_beta   86.68765563
_cell_angle_gamma   77.74662203
_symmetry_Int_Tables_number   1
_chemical_formula_structural   Sr5B6
_chemical_formula_sum   'Sr5 B6'
_cell_volume   139.85849042
_cell_formula_units_Z   1
loop_
 _symmetry_equiv_pos_site_id
 _symmetry_equiv_pos_as_xyz
  1  'x, y, z'
loop_
 _atom_site_type_symbol
 _atom_site_label
 _atom_site_symmetry_multiplicity
 _atom_site_fract_x
 _atom_site_fract_y
 _atom_site_fract_z
 _atom_site_occupancy
  Sr  Sr0  1  0.001956  0.512987  0.149114  1
  Sr  Sr1  1  0.303192  0.117012  0.859369  1
  Sr  Sr2  1  0.381071  0.531526  0.527183  1
  Sr  Sr3  1  0.670945  0.128177  0.245287  1
  Sr  Sr4  1  0.859466  0.818775  0.708125  1
  B  B5  1  0.160928  0.104696  0.453685  1
  B  B6  1  0.217418  0.921535  0.259721  1
  B  B7  1  0.451309  0.725209  0.126379  1
  B  B8  1  0.514558  0.542333  0.933266  1
  B  B9  1  0.764676  0.339983  0.815078  1
  B  B10  1  0.913828  0.307873  0.574566  1
