# generated using pymatgen
data_Sr7B6
_symmetry_space_group_name_H-M   P1
_cell_length_a   4.34453417
_cell_length_b   4.64226695
_cell_length_c   9.75615853
_cell_angle_alpha   96.91400689
_cell_angle_beta   94.84374398
_cell_angle_gamma   116.61649367
_symmetry_Int_Tables_number   1
_chemical_formula_structural   Sr7B6
_chemical_formula_sum   'Sr7 B6'
_cell_volume   172.49991035
_cell_formula_units_Z   1
loop_
 _symmetry_equiv_pos_site_id
 _symmetry_equiv_pos_as_xyz
  1  'x, y, z'
loop_
 _atom_site_type_symbol
 _atom_site_label
 _atom_site_symmetry_multiplicity
 _atom_site_fract_x
 _atom_site_fract_y
 _atom_site_fract_z
 _atom_site_occupancy
  Sr  Sr0  1  0.157469  0.740959  0.600866  1
  Sr  Sr1  1  0.181342  0.906657  0.255061  1
  Sr  Sr2  1  0.333902  0.934811  0.986827  1
  Sr  Sr3  1  0.531929  0.593796  0.334800  1
  Sr  Sr4  1  0.561045  0.500401  0.722874  1
  Sr  Sr5  1  0.665230  0.588450  0.031597  1
  Sr  Sr6  1  0.923998  0.174286  0.815788  1
  B  B7  1  0.048522  0.296602  0.092796  1
  B  B8  1  0.177734  0.203473  0.488869  1
  B  B9  1  0.551395  0.203702  0.489112  1
  B  B10  1  0.809104  0.067669  0.544946  1
  B  B11  1  0.829562  0.226109  0.216906  1
  B  B12  1  0.869791  0.254656  0.390141  1
