# generated using pymatgen
data_Sr2B11
_symmetry_space_group_name_H-M   Pm
_cell_length_a   4.14974626
_cell_length_b   2.83179352
_cell_length_c   8.43603381
_cell_angle_alpha   90.00000000
_cell_angle_beta   90.01154269
_cell_angle_gamma   90.00000000
_symmetry_Int_Tables_number   6
_chemical_formula_structural   Sr2B11
_chemical_formula_sum   'Sr2 B11'
_cell_volume   99.13372578
_cell_formula_units_Z   1
loop_
 _symmetry_equiv_pos_site_id
 _symmetry_equiv_pos_as_xyz
  1  'x, y, z'
  2  'x, -y, z'
loop_
 _atom_site_type_symbol
 _atom_site_label
 _atom_site_symmetry_multiplicity
 _atom_site_fract_x
 _atom_site_fract_y
 _atom_site_fract_z
 _atom_site_occupancy
  Sr  Sr0  1  0.020930  0.000000  0.167116  1
  Sr  Sr1  1  0.299077  0.500000  0.691483  1
  B  B2  1  0.101862  0.000000  0.468732  1
  B  B3  1  0.219999  0.500000  0.389279  1
  B  B4  1  0.232701  0.500000  0.962051  1
  B  B5  1  0.502369  0.000000  0.414229  1
  B  B6  1  0.522638  0.000000  0.947933  1
  B  B7  1  0.541167  0.500000  0.074497  1
  B  B8  1  0.546486  0.500000  0.281989  1
  B  B9  1  0.778642  0.000000  0.789290  1
  B  B10  1  0.782057  0.000000  0.582689  1
  B  B11  1  0.820566  0.500000  0.448776  1
  B  B12  1  0.846664  0.500000  0.906460  1
