# generated using pymatgen
data_Sr3B13
_symmetry_space_group_name_H-M   Pm
_cell_length_a   2.93040389
_cell_length_b   8.32860845
_cell_length_c   5.42205079
_cell_angle_alpha   90.00000000
_cell_angle_beta   92.73984099
_cell_angle_gamma   90.00000000
_symmetry_Int_Tables_number   6
_chemical_formula_structural   Sr3B13
_chemical_formula_sum   'Sr3 B13'
_cell_volume   132.18031219
_cell_formula_units_Z   1
loop_
 _symmetry_equiv_pos_site_id
 _symmetry_equiv_pos_as_xyz
  1  'x, y, z'
  2  'x, -y, z'
loop_
 _atom_site_type_symbol
 _atom_site_label
 _atom_site_symmetry_multiplicity
 _atom_site_fract_x
 _atom_site_fract_y
 _atom_site_fract_z
 _atom_site_occupancy
  Sr  Sr0  1  0.208987  0.500000  0.305401  1
  Sr  Sr1  1  0.235614  0.000000  0.329427  1
  Sr  Sr2  1  0.692671  0.500000  0.836478  1
  B  B3  2  0.183175  0.236706  0.967513  1
  B  B4  2  0.204050  0.278765  0.638242  1
  B  B5  2  0.694549  0.107070  0.993823  1
  B  B6  2  0.700611  0.254556  0.174421  1
  B  B7  2  0.702935  0.260893  0.488962  1
  B  B8  2  0.936900  0.113014  0.717134  1
  B  B9  1  0.476579  0.000000  0.767785  1
