# generated using pymatgen
data_Sr5B8
_symmetry_space_group_name_H-M   P-1
_cell_length_a   4.25128941
_cell_length_b   5.38996255
_cell_length_c   6.86725275
_cell_angle_alpha   88.43021807
_cell_angle_beta   73.15183248
_cell_angle_gamma   75.94275261
_symmetry_Int_Tables_number   2
_chemical_formula_structural   Sr5B8
_chemical_formula_sum   'Sr5 B8'
_cell_volume   145.93694556
_cell_formula_units_Z   1
loop_
 _symmetry_equiv_pos_site_id
 _symmetry_equiv_pos_as_xyz
  1  'x, y, z'
  2  '-x, -y, -z'
loop_
 _atom_site_type_symbol
 _atom_site_label
 _atom_site_symmetry_multiplicity
 _atom_site_fract_x
 _atom_site_fract_y
 _atom_site_fract_z
 _atom_site_occupancy
  Sr  Sr0  2  0.242096  0.414101  0.635837  1
  Sr  Sr1  2  0.385070  0.197736  0.243947  1
  Sr  Sr2  1  0.000000  0.000000  0.000000  1
  B  B3  2  0.148950  0.941809  0.563529  1
  B  B4  2  0.182925  0.813731  0.349380  1
  B  B5  2  0.199799  0.508851  0.990683  1
  B  B6  2  0.393381  0.656307  0.134476  1
