# generated using pymatgen
data_Sr2B11
_symmetry_space_group_name_H-M   C2/m
_cell_length_a   7.93727426
_cell_length_b   5.69503423
_cell_length_c   4.82307495
_cell_angle_alpha   90.00000000
_cell_angle_beta   113.95637154
_cell_angle_gamma   90.00000000
_symmetry_Int_Tables_number   12
_chemical_formula_structural   Sr2B11
_chemical_formula_sum   'Sr4 B22'
_cell_volume   199.23653718
_cell_formula_units_Z   2
loop_
 _symmetry_equiv_pos_site_id
 _symmetry_equiv_pos_as_xyz
  1  'x, y, z'
  2  '-x, -y, -z'
  3  '-x, y, -z'
  4  'x, -y, z'
  5  'x+1/2, y+1/2, z'
  6  '-x+1/2, -y+1/2, -z'
  7  '-x+1/2, y+1/2, -z'
  8  'x+1/2, -y+1/2, z'
loop_
 _atom_site_type_symbol
 _atom_site_label
 _atom_site_symmetry_multiplicity
 _atom_site_fract_x
 _atom_site_fract_y
 _atom_site_fract_z
 _atom_site_occupancy
  Sr  Sr0  4  0.250000  0.250000  0.500000  1
  B  B1  8  0.074098  0.258155  0.897565  1
  B  B2  4  0.048822  0.500000  0.691199  1
  B  B3  4  0.052514  0.000000  0.691231  1
  B  B4  4  0.245810  0.500000  0.998797  1
  B  B5  2  0.000000  0.000000  0.000000  1
