# generated using pymatgen
data_SrB15
_symmetry_space_group_name_H-M   P1
_cell_length_a   2.94452222
_cell_length_b   4.93532360
_cell_length_c   7.41867634
_cell_angle_alpha   91.09869433
_cell_angle_beta   92.64124931
_cell_angle_gamma   93.94392784
_symmetry_Int_Tables_number   1
_chemical_formula_structural   SrB15
_chemical_formula_sum   'Sr1 B15'
_cell_volume   107.41288731
_cell_formula_units_Z   1
loop_
 _symmetry_equiv_pos_site_id
 _symmetry_equiv_pos_as_xyz
  1  'x, y, z'
loop_
 _atom_site_type_symbol
 _atom_site_label
 _atom_site_symmetry_multiplicity
 _atom_site_fract_x
 _atom_site_fract_y
 _atom_site_fract_z
 _atom_site_occupancy
  Sr  Sr0  1  0.111543  0.418550  0.391403  1
  B  B1  1  0.071662  0.094139  0.663626  1
  B  B2  1  0.089101  0.749018  0.646307  1
  B  B3  1  0.112869  0.827487  0.054864  1
  B  B4  1  0.141972  0.184883  0.079026  1
  B  B5  1  0.393628  0.359051  0.873426  1
  B  B6  1  0.430194  0.695411  0.917849  1
  B  B7  1  0.494282  0.871305  0.339093  1
  B  B8  1  0.565496  0.606778  0.704107  1
  B  B9  1  0.593801  0.262065  0.678780  1
  B  B10  1  0.620733  0.687152  0.145888  1
  B  B11  1  0.651108  0.346499  0.087831  1
  B  B12  1  0.869527  0.195931  0.874812  1
  B  B13  1  0.905316  0.851365  0.837843  1
  B  B14  1  0.962193  0.964505  0.238013  1
  B  B15  1  0.997341  0.913602  0.459115  1
