# generated using pymatgen
data_Sr3B10
_symmetry_space_group_name_H-M   P1
_cell_length_a   4.45052169
_cell_length_b   4.94725964
_cell_length_c   5.36941326
_cell_angle_alpha   96.58316249
_cell_angle_beta   100.09086882
_cell_angle_gamma   90.40994541
_symmetry_Int_Tables_number   1
_chemical_formula_structural   Sr3B10
_chemical_formula_sum   'Sr3 B10'
_cell_volume   115.58204334
_cell_formula_units_Z   1
loop_
 _symmetry_equiv_pos_site_id
 _symmetry_equiv_pos_as_xyz
  1  'x, y, z'
loop_
 _atom_site_type_symbol
 _atom_site_label
 _atom_site_symmetry_multiplicity
 _atom_site_fract_x
 _atom_site_fract_y
 _atom_site_fract_z
 _atom_site_occupancy
  Sr  Sr0  1  0.021806  0.613217  0.413342  1
  Sr  Sr1  1  0.436828  0.400485  0.991200  1
  Sr  Sr2  1  0.550202  0.845231  0.608062  1
  B  B3  1  0.079079  0.144141  0.592574  1
  B  B4  1  0.083002  0.963165  0.816089  1
  B  B5  1  0.223031  0.145652  0.332139  1
  B  B6  1  0.287222  0.896519  0.090926  1
  B  B7  1  0.568699  0.309719  0.485589  1
  B  B8  1  0.680133  0.877830  0.099249  1
  B  B9  1  0.813493  0.124944  0.322221  1
  B  B10  1  0.876831  0.344354  0.775698  1
  B  B11  1  0.947070  0.141064  0.055977  1
  B  B12  1  0.950060  0.695784  0.943856  1
