# generated using pymatgen
data_Sr2B7
_symmetry_space_group_name_H-M   C2
_cell_length_a   6.85263425
_cell_length_b   5.45456937
_cell_length_c   5.06392487
_cell_angle_alpha   90.00000000
_cell_angle_beta   122.57938406
_cell_angle_gamma   90.00000000
_symmetry_Int_Tables_number   5
_chemical_formula_structural   Sr2B7
_chemical_formula_sum   'Sr4 B14'
_cell_volume   159.49627419
_cell_formula_units_Z   2
loop_
 _symmetry_equiv_pos_site_id
 _symmetry_equiv_pos_as_xyz
  1  'x, y, z'
  2  '-x, y, -z'
  3  'x+1/2, y+1/2, z'
  4  '-x+1/2, y+1/2, -z'
loop_
 _atom_site_type_symbol
 _atom_site_label
 _atom_site_symmetry_multiplicity
 _atom_site_fract_x
 _atom_site_fract_y
 _atom_site_fract_z
 _atom_site_occupancy
  Sr  Sr0  4  0.241307  0.451180  0.083137  1
  B  B1  4  0.107749  0.602944  0.484396  1
  B  B2  4  0.118007  0.121996  0.326942  1
  B  B3  4  0.212842  0.835990  0.382545  1
  B  B4  2  0.000000  0.282288  0.500000  1
