# generated using pymatgen
data_Sr8B5
_symmetry_space_group_name_H-M   Cm
_cell_length_a   15.14348200
_cell_length_b   4.45053244
_cell_length_c   5.41486341
_cell_angle_alpha   90.00000000
_cell_angle_beta   90.07417829
_cell_angle_gamma   90.00000000
_symmetry_Int_Tables_number   8
_chemical_formula_structural   Sr8B5
_chemical_formula_sum   'Sr16 B10'
_cell_volume   364.94284913
_cell_formula_units_Z   2
loop_
 _symmetry_equiv_pos_site_id
 _symmetry_equiv_pos_as_xyz
  1  'x, y, z'
  2  'x, -y, z'
  3  'x+1/2, y+1/2, z'
  4  'x+1/2, -y+1/2, z'
loop_
 _atom_site_type_symbol
 _atom_site_label
 _atom_site_symmetry_multiplicity
 _atom_site_fract_x
 _atom_site_fract_y
 _atom_site_fract_z
 _atom_site_occupancy
  Sr  Sr0  2  0.019334  0.000000  0.347107  1
  Sr  Sr1  2  0.036773  0.500000  0.053240  1
  Sr  Sr2  2  0.088336  0.000000  0.787720  1
  Sr  Sr3  2  0.235161  0.500000  0.927917  1
  Sr  Sr4  2  0.251250  0.000000  0.621151  1
  Sr  Sr5  2  0.337348  0.500000  0.412281  1
  Sr  Sr6  2  0.348846  0.000000  0.074584  1
  Sr  Sr7  2  0.441296  0.000000  0.625444  1
  B  B8  4  0.168868  0.318420  0.325193  1
  B  B9  2  0.116642  0.500000  0.552550  1
  B  B10  2  0.181429  0.000000  0.179236  1
  B  B11  2  0.417845  0.500000  0.897968  1
