# generated using pymatgen
data_Sr6B5
_symmetry_space_group_name_H-M   P1
_cell_length_a   5.15555873
_cell_length_b   5.76504205
_cell_length_c   5.89871627
_cell_angle_alpha   65.05160328
_cell_angle_beta   66.89244368
_cell_angle_gamma   85.34745493
_symmetry_Int_Tables_number   1
_chemical_formula_structural   Sr6B5
_chemical_formula_sum   'Sr6 B5'
_cell_volume   145.45735741
_cell_formula_units_Z   1
loop_
 _symmetry_equiv_pos_site_id
 _symmetry_equiv_pos_as_xyz
  1  'x, y, z'
loop_
 _atom_site_type_symbol
 _atom_site_label
 _atom_site_symmetry_multiplicity
 _atom_site_fract_x
 _atom_site_fract_y
 _atom_site_fract_z
 _atom_site_occupancy
  Sr  Sr0  1  0.160607  0.795125  0.750591  1
  Sr  Sr1  1  0.316765  0.766977  0.263538  1
  Sr  Sr2  1  0.556993  0.107529  0.715680  1
  Sr  Sr3  1  0.584477  0.364676  0.184747  1
  Sr  Sr4  1  0.695150  0.593438  0.649469  1
  Sr  Sr5  1  0.835522  0.951424  0.129089  1
  B  B6  1  0.035473  0.451947  0.246971  1
  B  B7  1  0.048735  0.133668  0.357454  1
  B  B8  1  0.077006  0.281354  0.540165  1
  B  B9  1  0.131666  0.358626  0.748060  1
  B  B10  1  0.173347  0.310774  0.024979  1
