# generated using pymatgen
data_Sr7B9
_symmetry_space_group_name_H-M   P1
_cell_length_a   5.04982605
_cell_length_b   5.99390055
_cell_length_c   6.97359594
_cell_angle_alpha   91.55436319
_cell_angle_beta   94.03866979
_cell_angle_gamma   114.35663763
_symmetry_Int_Tables_number   1
_chemical_formula_structural   Sr7B9
_chemical_formula_sum   'Sr7 B9'
_cell_volume   191.44681099
_cell_formula_units_Z   1
loop_
 _symmetry_equiv_pos_site_id
 _symmetry_equiv_pos_as_xyz
  1  'x, y, z'
loop_
 _atom_site_type_symbol
 _atom_site_label
 _atom_site_symmetry_multiplicity
 _atom_site_fract_x
 _atom_site_fract_y
 _atom_site_fract_z
 _atom_site_occupancy
  Sr  Sr0  1  0.130370  0.175404  0.871728  1
  Sr  Sr1  1  0.220097  0.946240  0.228197  1
  Sr  Sr2  1  0.229548  0.450086  0.222519  1
  Sr  Sr3  1  0.233315  0.691684  0.892952  1
  Sr  Sr4  1  0.699689  0.556519  0.739308  1
  Sr  Sr5  1  0.732212  0.302752  0.404041  1
  Sr  Sr6  1  0.750250  0.855055  0.450573  1
  B  B7  1  0.200653  0.705965  0.530636  1
  B  B8  1  0.218918  0.460694  0.580387  1
  B  B9  1  0.239377  0.214040  0.528665  1
  B  B10  1  0.334234  0.995805  0.620858  1
  B  B11  1  0.591331  0.105702  0.812704  1
  B  B12  1  0.681099  0.279473  0.013037  1
  B  B13  1  0.704075  0.034442  0.069538  1
  B  B14  1  0.719711  0.786679  0.070280  1
  B  B15  1  0.737709  0.543926  0.102983  1
