# generated using pymatgen
data_Sr7B5
_symmetry_space_group_name_H-M   P1
_cell_length_a   4.78210525
_cell_length_b   4.96121430
_cell_length_c   7.56230491
_cell_angle_alpha   71.80490535
_cell_angle_beta   84.11926603
_cell_angle_gamma   76.53265256
_symmetry_Int_Tables_number   1
_chemical_formula_structural   Sr7B5
_chemical_formula_sum   'Sr7 B5'
_cell_volume   165.67238732
_cell_formula_units_Z   1
loop_
 _symmetry_equiv_pos_site_id
 _symmetry_equiv_pos_as_xyz
  1  'x, y, z'
loop_
 _atom_site_type_symbol
 _atom_site_label
 _atom_site_symmetry_multiplicity
 _atom_site_fract_x
 _atom_site_fract_y
 _atom_site_fract_z
 _atom_site_occupancy
  Sr  Sr0  1  0.001961  0.964247  0.963797  1
  Sr  Sr1  1  0.243796  0.865084  0.638448  1
  Sr  Sr2  1  0.430864  0.417816  0.460125  1
  Sr  Sr3  1  0.432736  0.904288  0.194231  1
  Sr  Sr4  1  0.692850  0.548182  0.994966  1
  Sr  Sr5  1  0.848682  0.079053  0.338155  1
  Sr  Sr6  1  0.875674  0.485448  0.653240  1
  B  B7  1  0.200058  0.429673  0.152661  1
  B  B8  1  0.251609  0.394636  0.942264  1
  B  B9  1  0.455678  0.200380  0.824374  1
  B  B10  1  0.674161  0.002223  0.714545  1
  B  B11  1  0.969799  0.572608  0.286676  1
