# generated using pymatgen
data_Sr8B5
_symmetry_space_group_name_H-M   P1
_cell_length_a   5.12675098
_cell_length_b   6.38731884
_cell_length_c   6.43250131
_cell_angle_alpha   107.69336490
_cell_angle_beta   99.28355685
_cell_angle_gamma   105.94661951
_symmetry_Int_Tables_number   1
_chemical_formula_structural   Sr8B5
_chemical_formula_sum   'Sr8 B5'
_cell_volume   185.93469969
_cell_formula_units_Z   1
loop_
 _symmetry_equiv_pos_site_id
 _symmetry_equiv_pos_as_xyz
  1  'x, y, z'
loop_
 _atom_site_type_symbol
 _atom_site_label
 _atom_site_symmetry_multiplicity
 _atom_site_fract_x
 _atom_site_fract_y
 _atom_site_fract_z
 _atom_site_occupancy
  Sr  Sr0  1  0.190195  0.802262  0.702427  1
  Sr  Sr1  1  0.299997  0.586482  0.064104  1
  Sr  Sr2  1  0.319799  0.176242  0.199529  1
  Sr  Sr3  1  0.594925  0.576984  0.627452  1
  Sr  Sr4  1  0.598110  0.967585  0.451297  1
  Sr  Sr5  1  0.617162  0.304920  0.868661  1
  Sr  Sr6  1  0.922974  0.780779  0.198441  1
  Sr  Sr7  1  0.931313  0.374570  0.294107  1
  B  B8  1  0.016333  0.356199  0.667229  1
  B  B9  1  0.035661  0.157699  0.778700  1
  B  B10  1  0.164644  0.164625  0.556067  1
  B  B11  1  0.631934  0.956231  0.027222  1
  B  B12  1  0.850993  0.007861  0.891611  1
