# generated using pymatgen
data_SrB6
_symmetry_space_group_name_H-M   P-1
_cell_length_a   4.44214992
_cell_length_b   4.94306877
_cell_length_c   5.32450090
_cell_angle_alpha   69.77651811
_cell_angle_beta   73.62978002
_cell_angle_gamma   87.96912233
_symmetry_Int_Tables_number   2
_chemical_formula_structural   SrB6
_chemical_formula_sum   'Sr2 B12'
_cell_volume   105.00972287
_cell_formula_units_Z   2
loop_
 _symmetry_equiv_pos_site_id
 _symmetry_equiv_pos_as_xyz
  1  'x, y, z'
  2  '-x, -y, -z'
loop_
 _atom_site_type_symbol
 _atom_site_label
 _atom_site_symmetry_multiplicity
 _atom_site_fract_x
 _atom_site_fract_y
 _atom_site_fract_z
 _atom_site_occupancy
  Sr  Sr0  2  0.209897  0.024949  0.176557  1
  B  B1  2  0.017467  0.496773  0.771097  1
  B  B2  2  0.192708  0.366487  0.478932  1
  B  B3  2  0.256769  0.696837  0.860795  1
  B  B4  2  0.359947  0.046841  0.614290  1
  B  B5  2  0.398332  0.538804  0.136149  1
  B  B6  2  0.413274  0.374426  0.674521  1
