# generated using pymatgen
data_Sr7B5
_symmetry_space_group_name_H-M   P-1
_cell_length_a   5.34678247
_cell_length_b   5.39875083
_cell_length_c   5.94891106
_cell_angle_alpha   89.88452756
_cell_angle_beta   79.78015272
_cell_angle_gamma   80.48039070
_symmetry_Int_Tables_number   2
_chemical_formula_structural   Sr7B5
_chemical_formula_sum   'Sr7 B5'
_cell_volume   166.60313769
_cell_formula_units_Z   1
loop_
 _symmetry_equiv_pos_site_id
 _symmetry_equiv_pos_as_xyz
  1  'x, y, z'
  2  '-x, -y, -z'
loop_
 _atom_site_type_symbol
 _atom_site_label
 _atom_site_symmetry_multiplicity
 _atom_site_fract_x
 _atom_site_fract_y
 _atom_site_fract_z
 _atom_site_occupancy
  Sr  Sr0  2  0.123631  0.444120  0.187515  1
  Sr  Sr1  2  0.233061  0.137476  0.547108  1
  Sr  Sr2  2  0.467585  0.788350  0.131200  1
  Sr  Sr3  1  0.000000  0.000000  0.000000  1
  B  B4  2  0.223512  0.679113  0.522589  1
  B  B5  2  0.365925  0.671603  0.742248  1
  B  B6  1  0.500000  0.500000  0.500000  1
