# generated using pymatgen
data_Sr2B7
_symmetry_space_group_name_H-M   P-1
_cell_length_a   4.09188553
_cell_length_b   4.33220715
_cell_length_c   4.87398639
_cell_angle_alpha   84.08040880
_cell_angle_beta   79.75301688
_cell_angle_gamma   75.62203291
_symmetry_Int_Tables_number   2
_chemical_formula_structural   Sr2B7
_chemical_formula_sum   'Sr2 B7'
_cell_volume   82.20185758
_cell_formula_units_Z   1
loop_
 _symmetry_equiv_pos_site_id
 _symmetry_equiv_pos_as_xyz
  1  'x, y, z'
  2  '-x, -y, -z'
loop_
 _atom_site_type_symbol
 _atom_site_label
 _atom_site_symmetry_multiplicity
 _atom_site_fract_x
 _atom_site_fract_y
 _atom_site_fract_z
 _atom_site_occupancy
  Sr  Sr0  2  0.295648  0.020935  0.757921  1
  B  B1  2  0.047572  0.382493  0.332092  1
  B  B2  2  0.313627  0.569596  0.445936  1
  B  B3  2  0.324040  0.544684  0.114207  1
  B  B4  1  0.000000  0.500000  0.000000  1
