# generated using pymatgen
data_Sr7B5
_symmetry_space_group_name_H-M   Pm
_cell_length_a   5.15243297
_cell_length_b   4.54389863
_cell_length_c   7.10269105
_cell_angle_alpha   90.00000000
_cell_angle_beta   104.25649118
_cell_angle_gamma   90.00000000
_symmetry_Int_Tables_number   6
_chemical_formula_structural   Sr7B5
_chemical_formula_sum   'Sr7 B5'
_cell_volume   161.16794421
_cell_formula_units_Z   1
loop_
 _symmetry_equiv_pos_site_id
 _symmetry_equiv_pos_as_xyz
  1  'x, y, z'
  2  'x, -y, z'
loop_
 _atom_site_type_symbol
 _atom_site_label
 _atom_site_symmetry_multiplicity
 _atom_site_fract_x
 _atom_site_fract_y
 _atom_site_fract_z
 _atom_site_occupancy
  Sr  Sr0  1  0.140826  0.500000  0.756591  1
  Sr  Sr1  1  0.240987  0.500000  0.143685  1
  Sr  Sr2  1  0.448914  0.000000  0.783375  1
  Sr  Sr3  1  0.558707  0.000000  0.177302  1
  Sr  Sr4  1  0.826721  0.000000  0.575144  1
  Sr  Sr5  1  0.864244  0.500000  0.346356  1
  Sr  Sr6  1  0.969866  0.000000  0.013601  1
  B  B7  2  0.393324  0.319624  0.484861  1
  B  B8  1  0.240602  0.000000  0.405029  1
  B  B9  1  0.608574  0.500000  0.677415  1
  B  B10  1  0.684066  0.500000  0.931284  1
