# generated using pymatgen
data_Sr2B3
_symmetry_space_group_name_H-M   P-1
_cell_length_a   4.38185376
_cell_length_b   5.02736467
_cell_length_c   5.52021362
_cell_angle_alpha   90.06131780
_cell_angle_beta   110.23966751
_cell_angle_gamma   105.39446568
_symmetry_Int_Tables_number   2
_chemical_formula_structural   Sr2B3
_chemical_formula_sum   'Sr4 B6'
_cell_volume   109.42165657
_cell_formula_units_Z   2
loop_
 _symmetry_equiv_pos_site_id
 _symmetry_equiv_pos_as_xyz
  1  'x, y, z'
  2  '-x, -y, -z'
loop_
 _atom_site_type_symbol
 _atom_site_label
 _atom_site_symmetry_multiplicity
 _atom_site_fract_x
 _atom_site_fract_y
 _atom_site_fract_z
 _atom_site_occupancy
  Sr  Sr0  2  0.122997  0.738344  0.155925  1
  Sr  Sr1  2  0.240719  0.960925  0.719684  1
  B  B2  2  0.199061  0.471448  0.553593  1
  B  B3  2  0.388394  0.333813  0.376725  1
  B  B4  2  0.477648  0.556007  0.864005  1
