# generated using pymatgen
data_Sr2B7
_symmetry_space_group_name_H-M   Pm
_cell_length_a   3.32022060
_cell_length_b   4.37756451
_cell_length_c   5.41387148
_cell_angle_alpha   90.00000000
_cell_angle_beta   95.28184377
_cell_angle_gamma   90.00000000
_symmetry_Int_Tables_number   6
_chemical_formula_structural   Sr2B7
_chemical_formula_sum   'Sr2 B7'
_cell_volume   78.35369112
_cell_formula_units_Z   1
loop_
 _symmetry_equiv_pos_site_id
 _symmetry_equiv_pos_as_xyz
  1  'x, y, z'
  2  'x, -y, z'
loop_
 _atom_site_type_symbol
 _atom_site_label
 _atom_site_symmetry_multiplicity
 _atom_site_fract_x
 _atom_site_fract_y
 _atom_site_fract_z
 _atom_site_occupancy
  Sr  Sr0  1  0.038819  0.500000  0.449499  1
  Sr  Sr1  1  0.404925  0.000000  0.673879  1
  B  B2  2  0.475125  0.313431  0.098588  1
  B  B3  2  0.951872  0.200016  0.988270  1
  B  B4  1  0.242921  0.000000  0.199534  1
  B  B5  1  0.697418  0.500000  0.862819  1
  B  B6  1  0.752493  0.000000  0.247727  1
