# generated using pymatgen
data_Sr8B5
_symmetry_space_group_name_H-M   P1
_cell_length_a   5.02345975
_cell_length_b   5.73794745
_cell_length_c   6.96649587
_cell_angle_alpha   86.51622570
_cell_angle_beta   84.27698027
_cell_angle_gamma   68.07660685
_symmetry_Int_Tables_number   1
_chemical_formula_structural   Sr8B5
_chemical_formula_sum   'Sr8 B5'
_cell_volume   185.29452136
_cell_formula_units_Z   1
loop_
 _symmetry_equiv_pos_site_id
 _symmetry_equiv_pos_as_xyz
  1  'x, y, z'
loop_
 _atom_site_type_symbol
 _atom_site_label
 _atom_site_symmetry_multiplicity
 _atom_site_fract_x
 _atom_site_fract_y
 _atom_site_fract_z
 _atom_site_occupancy
  Sr  Sr0  1  0.122920  0.981488  0.669393  1
  Sr  Sr1  1  0.254665  0.372884  0.506166  1
  Sr  Sr2  1  0.421403  0.079123  0.186056  1
  Sr  Sr3  1  0.495084  0.648257  0.021032  1
  Sr  Sr4  1  0.572018  0.210699  0.809358  1
  Sr  Sr5  1  0.664893  0.673243  0.634150  1
  Sr  Sr6  1  0.751802  0.370923  0.314903  1
  Sr  Sr7  1  0.973183  0.848140  0.342802  1
  B  B8  1  0.018384  0.325378  0.936182  1
  B  B9  1  0.053128  0.531099  0.084753  1
  B  B10  1  0.074881  0.577681  0.842987  1
  B  B11  1  0.928421  0.819719  0.984898  1
  B  B12  1  0.981538  0.074145  0.021824  1
