# generated using pymatgen
data_Sr5B9
_symmetry_space_group_name_H-M   Pm
_cell_length_a   5.02693012
_cell_length_b   2.93357294
_cell_length_c   9.86169870
_cell_angle_alpha   90.00000000
_cell_angle_beta   94.56326180
_cell_angle_gamma   90.00000000
_symmetry_Int_Tables_number   6
_chemical_formula_structural   Sr5B9
_chemical_formula_sum   'Sr5 B9'
_cell_volume   144.96815472
_cell_formula_units_Z   1
loop_
 _symmetry_equiv_pos_site_id
 _symmetry_equiv_pos_as_xyz
  1  'x, y, z'
  2  'x, -y, z'
loop_
 _atom_site_type_symbol
 _atom_site_label
 _atom_site_symmetry_multiplicity
 _atom_site_fract_x
 _atom_site_fract_y
 _atom_site_fract_z
 _atom_site_occupancy
  Sr  Sr0  1  0.039219  0.000000  0.701996  1
  Sr  Sr1  1  0.462444  0.500000  0.288484  1
  Sr  Sr2  1  0.551524  0.000000  0.780839  1
  Sr  Sr3  1  0.598218  0.000000  0.056306  1
  Sr  Sr4  1  0.981754  0.000000  0.286543  1
  B  B5  1  0.080162  0.000000  0.970945  1
  B  B6  1  0.091829  0.500000  0.071838  1
  B  B7  1  0.176345  0.500000  0.500218  1
  B  B8  1  0.239342  0.500000  0.918252  1
  B  B9  1  0.342449  0.000000  0.488214  1
  B  B10  1  0.517319  0.500000  0.559502  1
  B  B11  1  0.669280  0.000000  0.486051  1
  B  B12  1  0.837886  0.500000  0.499010  1
  B  B13  1  0.905684  0.500000  0.916737  1
