# generated using pymatgen
data_Sr11B6
_symmetry_space_group_name_H-M   Pm
_cell_length_a   5.31800823
_cell_length_b   4.24066992
_cell_length_c   11.37043984
_cell_angle_alpha   90.00000000
_cell_angle_beta   100.74603395
_cell_angle_gamma   90.00000000
_symmetry_Int_Tables_number   6
_chemical_formula_structural   Sr11B6
_chemical_formula_sum   'Sr11 B6'
_cell_volume   251.92837116
_cell_formula_units_Z   1
loop_
 _symmetry_equiv_pos_site_id
 _symmetry_equiv_pos_as_xyz
  1  'x, y, z'
  2  'x, -y, z'
loop_
 _atom_site_type_symbol
 _atom_site_label
 _atom_site_symmetry_multiplicity
 _atom_site_fract_x
 _atom_site_fract_y
 _atom_site_fract_z
 _atom_site_occupancy
  Sr  Sr0  1  0.045393  0.000000  0.851547  1
  Sr  Sr1  1  0.181647  0.000000  0.183319  1
  Sr  Sr2  1  0.263012  0.500000  0.575363  1
  Sr  Sr3  1  0.310259  0.000000  0.427507  1
  Sr  Sr4  1  0.433921  0.500000  0.900532  1
  Sr  Sr5  1  0.465633  0.000000  0.738490  1
  Sr  Sr6  1  0.543353  0.500000  0.179244  1
  Sr  Sr7  1  0.724680  0.500000  0.458867  1
  Sr  Sr8  1  0.814044  0.000000  0.327106  1
  Sr  Sr9  1  0.845574  0.500000  0.715136  1
  Sr  Sr10  1  0.966806  0.500000  0.038020  1
  B  B11  1  0.004346  0.000000  0.594761  1
  B  B12  1  0.108032  0.500000  0.312689  1
  B  B13  1  0.421145  0.000000  0.020943  1
  B  B14  1  0.685592  0.000000  0.958487  1
  B  B15  1  0.706711  0.000000  0.099682  1
  B  B16  1  0.709545  0.000000  0.579006  1
