# generated using pymatgen
data_SrB13
_symmetry_space_group_name_H-M   Cm
_cell_length_a   15.46277357
_cell_length_b   2.74335460
_cell_length_c   4.54566705
_cell_angle_alpha   90.00000000
_cell_angle_beta   98.26017971
_cell_angle_gamma   90.00000000
_symmetry_Int_Tables_number   8
_chemical_formula_structural   SrB13
_chemical_formula_sum   'Sr2 B26'
_cell_volume   190.82620306
_cell_formula_units_Z   2
loop_
 _symmetry_equiv_pos_site_id
 _symmetry_equiv_pos_as_xyz
  1  'x, y, z'
  2  'x, -y, z'
  3  'x+1/2, y+1/2, z'
  4  'x+1/2, -y+1/2, z'
loop_
 _atom_site_type_symbol
 _atom_site_label
 _atom_site_symmetry_multiplicity
 _atom_site_fract_x
 _atom_site_fract_y
 _atom_site_fract_z
 _atom_site_occupancy
  Sr  Sr0  2  0.321945  0.000000  0.284314  1
  B  B1  2  0.027991  0.500000  0.655816  1
  B  B2  2  0.044307  0.000000  0.137799  1
  B  B3  2  0.088321  0.000000  0.822450  1
  B  B4  2  0.090142  0.500000  0.339908  1
  B  B5  2  0.140180  0.500000  0.697162  1
  B  B6  2  0.153666  0.000000  0.195061  1
  B  B7  2  0.192871  0.500000  0.395129  1
  B  B8  2  0.197622  0.000000  0.861894  1
  B  B9  2  0.253521  0.500000  0.742280  1
  B  B10  2  0.365203  0.500000  0.791012  1
  B  B11  2  0.428998  0.000000  0.777987  1
  B  B12  2  0.439446  0.500000  0.078986  1
  B  B13  2  0.485455  0.000000  0.264000  1
