# generated using pymatgen
data_Sr7B3
_symmetry_space_group_name_H-M   Cm
_cell_length_a   13.57703914
_cell_length_b   4.31588851
_cell_length_c   5.60839618
_cell_angle_alpha   90.00000000
_cell_angle_beta   107.11623720
_cell_angle_gamma   90.00000000
_symmetry_Int_Tables_number   8
_chemical_formula_structural   Sr7B3
_chemical_formula_sum   'Sr14 B6'
_cell_volume   314.07975420
_cell_formula_units_Z   2
loop_
 _symmetry_equiv_pos_site_id
 _symmetry_equiv_pos_as_xyz
  1  'x, y, z'
  2  'x, -y, z'
  3  'x+1/2, y+1/2, z'
  4  'x+1/2, -y+1/2, z'
loop_
 _atom_site_type_symbol
 _atom_site_label
 _atom_site_symmetry_multiplicity
 _atom_site_fract_x
 _atom_site_fract_y
 _atom_site_fract_z
 _atom_site_occupancy
  Sr  Sr0  2  0.024849  0.000000  0.144861  1
  Sr  Sr1  2  0.117615  0.000000  0.741313  1
  Sr  Sr2  2  0.240979  0.000000  0.342826  1
  Sr  Sr3  2  0.241928  0.500000  0.706442  1
  Sr  Sr4  2  0.323142  0.500000  0.195085  1
  Sr  Sr5  2  0.409032  0.000000  0.906055  1
  Sr  Sr6  2  0.489604  0.000000  0.522212  1
  B  B7  2  0.118024  0.500000  0.005877  1
  B  B8  2  0.125757  0.500000  0.287445  1
  B  B9  2  0.415294  0.500000  0.651155  1
