# generated using pymatgen
data_Sr7B8
_symmetry_space_group_name_H-M   P1
_cell_length_a   4.46354162
_cell_length_b   4.83379329
_cell_length_c   8.78690068
_cell_angle_alpha   78.26258126
_cell_angle_beta   89.01555075
_cell_angle_gamma   89.38021578
_symmetry_Int_Tables_number   1
_chemical_formula_structural   Sr7B8
_chemical_formula_sum   'Sr7 B8'
_cell_volume   185.58796616
_cell_formula_units_Z   1
loop_
 _symmetry_equiv_pos_site_id
 _symmetry_equiv_pos_as_xyz
  1  'x, y, z'
loop_
 _atom_site_type_symbol
 _atom_site_label
 _atom_site_symmetry_multiplicity
 _atom_site_fract_x
 _atom_site_fract_y
 _atom_site_fract_z
 _atom_site_occupancy
  Sr  Sr0  1  0.085090  0.450525  0.036679  1
  Sr  Sr1  1  0.101668  0.477380  0.669897  1
  Sr  Sr2  1  0.110818  0.978705  0.461416  1
  Sr  Sr3  1  0.574644  0.683313  0.135355  1
  Sr  Sr4  1  0.597882  0.662947  0.822503  1
  Sr  Sr5  1  0.604151  0.161403  0.653868  1
  Sr  Sr6  1  0.624919  0.124294  0.277999  1
  B  B7  1  0.096525  0.921162  0.791801  1
  B  B8  1  0.111157  0.513440  0.331952  1
  B  B9  1  0.273236  0.055045  0.921816  1
  B  B10  1  0.427235  0.548998  0.411698  1
  B  B11  1  0.585564  0.174651  0.971013  1
  B  B12  1  0.606991  0.711680  0.528232  1
  B  B13  1  0.788713  0.551231  0.407028  1
  B  B14  1  0.906630  0.052341  0.924764  1
