# generated using pymatgen
data_Sr11B5
_symmetry_space_group_name_H-M   P1
_cell_length_a   4.46754615
_cell_length_b   7.00951741
_cell_length_c   8.46557314
_cell_angle_alpha   97.23887645
_cell_angle_beta   103.63336235
_cell_angle_gamma   103.59995953
_symmetry_Int_Tables_number   1
_chemical_formula_structural   Sr11B5
_chemical_formula_sum   'Sr11 B5'
_cell_volume   245.74640505
_cell_formula_units_Z   1
loop_
 _symmetry_equiv_pos_site_id
 _symmetry_equiv_pos_as_xyz
  1  'x, y, z'
loop_
 _atom_site_type_symbol
 _atom_site_label
 _atom_site_symmetry_multiplicity
 _atom_site_fract_x
 _atom_site_fract_y
 _atom_site_fract_z
 _atom_site_occupancy
  Sr  Sr0  1  0.102992  0.231276  0.938922  1
  Sr  Sr1  1  0.191909  0.504381  0.730007  1
  Sr  Sr2  1  0.217244  0.905765  0.277730  1
  Sr  Sr3  1  0.225011  0.943904  0.749921  1
  Sr  Sr4  1  0.564048  0.248240  0.650119  1
  Sr  Sr5  1  0.589564  0.995019  0.060570  1
  Sr  Sr6  1  0.624306  0.796008  0.548958  1
  Sr  Sr7  1  0.760565  0.408216  0.097768  1
  Sr  Sr8  1  0.806748  0.699692  0.921494  1
  Sr  Sr9  1  0.873920  0.152481  0.402430  1
  Sr  Sr10  1  0.971045  0.584419  0.425195  1
  B  B11  1  0.323512  0.616859  0.066473  1
  B  B12  1  0.337260  0.268622  0.247712  1
  B  B13  1  0.378069  0.519783  0.245970  1
  B  B14  1  0.404619  0.415652  0.420789  1
  B  B15  1  0.634469  0.726822  0.220331  1
