# generated using pymatgen
data_Sr2B13
_symmetry_space_group_name_H-M   Pm
_cell_length_a   4.13482191
_cell_length_b   6.00300635
_cell_length_c   4.67645061
_cell_angle_alpha   90.00000000
_cell_angle_beta   101.94038084
_cell_angle_gamma   90.00000000
_symmetry_Int_Tables_number   6
_chemical_formula_structural   Sr2B13
_chemical_formula_sum   'Sr2 B13'
_cell_volume   113.56438876
_cell_formula_units_Z   1
loop_
 _symmetry_equiv_pos_site_id
 _symmetry_equiv_pos_as_xyz
  1  'x, y, z'
  2  'x, -y, z'
loop_
 _atom_site_type_symbol
 _atom_site_label
 _atom_site_symmetry_multiplicity
 _atom_site_fract_x
 _atom_site_fract_y
 _atom_site_fract_z
 _atom_site_occupancy
  Sr  Sr0  1  0.355712  0.500000  0.625182  1
  Sr  Sr1  1  0.386413  0.000000  0.812927  1
  B  B2  2  0.041802  0.139087  0.251330  1
  B  B3  2  0.276565  0.335666  0.109401  1
  B  B4  2  0.458741  0.144118  0.334836  1
  B  B5  2  0.696394  0.315922  0.177852  1
  B  B6  2  0.828252  0.164351  0.547451  1
  B  B7  2  0.916381  0.259550  0.893993  1
  B  B8  1  0.939299  0.500000  0.049309  1
