# generated using pymatgen
data_Sr5B11
_symmetry_space_group_name_H-M   P1
_cell_length_a   5.19414304
_cell_length_b   5.85167460
_cell_length_c   5.99237238
_cell_angle_alpha   109.12652843
_cell_angle_beta   105.09632049
_cell_angle_gamma   99.96637618
_symmetry_Int_Tables_number   1
_chemical_formula_structural   Sr5B11
_chemical_formula_sum   'Sr5 B11'
_cell_volume   159.33621229
_cell_formula_units_Z   1
loop_
 _symmetry_equiv_pos_site_id
 _symmetry_equiv_pos_as_xyz
  1  'x, y, z'
loop_
 _atom_site_type_symbol
 _atom_site_label
 _atom_site_symmetry_multiplicity
 _atom_site_fract_x
 _atom_site_fract_y
 _atom_site_fract_z
 _atom_site_occupancy
  Sr  Sr0  1  0.251408  0.041994  0.485036  1
  Sr  Sr1  1  0.318918  0.330331  0.054088  1
  Sr  Sr2  1  0.375014  0.895224  0.980898  1
  Sr  Sr3  1  0.488892  0.548926  0.641201  1
  Sr  Sr4  1  0.646341  0.786454  0.314351  1
  B  B5  1  0.007786  0.486742  0.763477  1
  B  B6  1  0.028642  0.551878  0.276323  1
  B  B7  1  0.712243  0.058682  0.837384  1
  B  B8  1  0.780231  0.287576  0.441390  1
  B  B9  1  0.804048  0.368325  0.952317  1
  B  B10  1  0.876976  0.183383  0.680579  1
  B  B11  1  0.893757  0.224323  0.191146  1
  B  B12  1  0.920640  0.943451  0.019377  1
  B  B13  1  0.938881  0.919800  0.732148  1
  B  B14  1  0.958055  0.667940  0.041967  1
  B  B15  1  0.968336  0.631002  0.556598  1
