# generated using pymatgen
data_Sr11B5
_symmetry_space_group_name_H-M   P1
_cell_length_a   6.07571940
_cell_length_b   6.11902243
_cell_length_c   7.20582326
_cell_angle_alpha   98.03347214
_cell_angle_beta   98.90461112
_cell_angle_gamma   109.25115812
_symmetry_Int_Tables_number   1
_chemical_formula_structural   Sr11B5
_chemical_formula_sum   'Sr11 B5'
_cell_volume   244.58265292
_cell_formula_units_Z   1
loop_
 _symmetry_equiv_pos_site_id
 _symmetry_equiv_pos_as_xyz
  1  'x, y, z'
loop_
 _atom_site_type_symbol
 _atom_site_label
 _atom_site_symmetry_multiplicity
 _atom_site_fract_x
 _atom_site_fract_y
 _atom_site_fract_z
 _atom_site_occupancy
  Sr  Sr0  1  0.066223  0.686940  0.646414  1
  Sr  Sr1  1  0.113663  0.478731  0.101492  1
  Sr  Sr2  1  0.332865  0.855782  0.384600  1
  Sr  Sr3  1  0.402327  0.918251  0.954289  1
  Sr  Sr4  1  0.405235  0.305676  0.491131  1
  Sr  Sr5  1  0.456718  0.489694  0.879862  1
  Sr  Sr6  1  0.604085  0.341825  0.190772  1
  Sr  Sr7  1  0.679738  0.816485  0.658408  1
  Sr  Sr8  1  0.788962  0.294851  0.767733  1
  Sr  Sr9  1  0.789180  0.810065  0.297076  1
  Sr  Sr10  1  0.964436  0.270050  0.402836  1
  B  B11  1  0.067880  0.069199  0.901032  1
  B  B12  1  0.114620  0.120797  0.691906  1
  B  B13  1  0.131002  0.056119  0.137792  1
  B  B14  1  0.853740  0.039298  0.030593  1
  B  B15  1  0.935706  0.796556  0.979001  1
