# generated using pymatgen
data_Sr3B
_symmetry_space_group_name_H-M   C2/m
_cell_length_a   12.07336529
_cell_length_b   7.14195942
_cell_length_c   3.08441683
_cell_angle_alpha   90.00000000
_cell_angle_beta   101.22340723
_cell_angle_gamma   90.00000000
_symmetry_Int_Tables_number   12
_chemical_formula_structural   Sr3B
_chemical_formula_sum   'Sr12 B4'
_cell_volume   260.87518432
_cell_formula_units_Z   4
loop_
 _symmetry_equiv_pos_site_id
 _symmetry_equiv_pos_as_xyz
  1  'x, y, z'
  2  '-x, -y, -z'
  3  '-x, y, -z'
  4  'x, -y, z'
  5  'x+1/2, y+1/2, z'
  6  '-x+1/2, -y+1/2, -z'
  7  '-x+1/2, y+1/2, -z'
  8  'x+1/2, -y+1/2, z'
loop_
 _atom_site_type_symbol
 _atom_site_label
 _atom_site_symmetry_multiplicity
 _atom_site_fract_x
 _atom_site_fract_y
 _atom_site_fract_z
 _atom_site_occupancy
  Sr  Sr0  8  0.100264  0.198534  0.354478  1
  Sr  Sr1  4  0.203032  0.500000  0.922177  1
  B  B2  4  0.004742  0.500000  0.251702  1
