# generated using pymatgen
data_Sr7B8
_symmetry_space_group_name_H-M   P1
_cell_length_a   4.74036361
_cell_length_b   4.95481369
_cell_length_c   7.94496156
_cell_angle_alpha   91.45436512
_cell_angle_beta   105.34624388
_cell_angle_gamma   92.53165632
_symmetry_Int_Tables_number   1
_chemical_formula_structural   Sr7B8
_chemical_formula_sum   'Sr7 B8'
_cell_volume   179.64576396
_cell_formula_units_Z   1
loop_
 _symmetry_equiv_pos_site_id
 _symmetry_equiv_pos_as_xyz
  1  'x, y, z'
loop_
 _atom_site_type_symbol
 _atom_site_label
 _atom_site_symmetry_multiplicity
 _atom_site_fract_x
 _atom_site_fract_y
 _atom_site_fract_z
 _atom_site_occupancy
  Sr  Sr0  1  0.196223  0.703925  0.500246  1
  Sr  Sr1  1  0.300774  0.436892  0.076871  1
  Sr  Sr2  1  0.327012  0.938262  0.150907  1
  Sr  Sr3  1  0.643026  0.441850  0.436260  1
  Sr  Sr4  1  0.645358  0.481277  0.853908  1
  Sr  Sr5  1  0.723219  0.981676  0.585675  1
  Sr  Sr6  1  0.769181  0.985154  0.937839  1
  B  B7  1  0.090215  0.392243  0.739944  1
  B  B8  1  0.119965  0.187849  0.394296  1
  B  B9  1  0.136838  0.721704  0.808349  1
  B  B10  1  0.225530  0.049918  0.785796  1
  B  B11  1  0.234912  0.219740  0.606441  1
  B  B12  1  0.839306  0.661421  0.190594  1
  B  B13  1  0.870298  0.979259  0.272650  1
  B  B14  1  0.891351  0.326686  0.216598  1
