# generated using pymatgen
data_Sr3B13
_symmetry_space_group_name_H-M   P1
_cell_length_a   4.91630106
_cell_length_b   5.34353551
_cell_length_c   5.42160348
_cell_angle_alpha   69.19792076
_cell_angle_beta   83.81486610
_cell_angle_gamma   80.92824809
_symmetry_Int_Tables_number   1
_chemical_formula_structural   Sr3B13
_chemical_formula_sum   'Sr3 B13'
_cell_volume   131.27124565
_cell_formula_units_Z   1
loop_
 _symmetry_equiv_pos_site_id
 _symmetry_equiv_pos_as_xyz
  1  'x, y, z'
loop_
 _atom_site_type_symbol
 _atom_site_label
 _atom_site_symmetry_multiplicity
 _atom_site_fract_x
 _atom_site_fract_y
 _atom_site_fract_z
 _atom_site_occupancy
  Sr  Sr0  1  0.049716  0.214302  0.324749  1
  Sr  Sr1  1  0.190678  0.723469  0.891212  1
  Sr  Sr2  1  0.635409  0.970574  0.627064  1
  B  B3  1  0.001245  0.227214  0.870508  1
  B  B4  1  0.006237  0.724467  0.376320  1
  B  B5  1  0.230315  0.418099  0.589701  1
  B  B6  1  0.339317  0.236419  0.899239  1
  B  B7  1  0.353981  0.725344  0.369738  1
  B  B8  1  0.489226  0.422060  0.340035  1
  B  B9  1  0.491034  0.966853  0.120909  1
  B  B10  1  0.536550  0.472103  0.634915  1
  B  B11  1  0.557559  0.257547  0.126693  1
  B  B12  1  0.676803  0.674794  0.119424  1
  B  B13  1  0.739112  0.489138  0.918755  1
  B  B14  1  0.827564  0.959483  0.119043  1
  B  B15  1  0.867305  0.489780  0.624511  1
