# generated using pymatgen
data_Sr9B7
_symmetry_space_group_name_H-M   P1
_cell_length_a   5.53064453
_cell_length_b   6.30094720
_cell_length_c   7.20176249
_cell_angle_alpha   82.55082606
_cell_angle_beta   73.58795986
_cell_angle_gamma   64.06817525
_symmetry_Int_Tables_number   1
_chemical_formula_structural   Sr9B7
_chemical_formula_sum   'Sr9 B7'
_cell_volume   216.49870626
_cell_formula_units_Z   1
loop_
 _symmetry_equiv_pos_site_id
 _symmetry_equiv_pos_as_xyz
  1  'x, y, z'
loop_
 _atom_site_type_symbol
 _atom_site_label
 _atom_site_symmetry_multiplicity
 _atom_site_fract_x
 _atom_site_fract_y
 _atom_site_fract_z
 _atom_site_occupancy
  Sr  Sr0  1  0.131865  0.352834  0.481872  1
  Sr  Sr1  1  0.198767  0.916738  0.829932  1
  Sr  Sr2  1  0.348030  0.906265  0.372145  1
  Sr  Sr3  1  0.378812  0.440701  0.788642  1
  Sr  Sr4  1  0.573127  0.434018  0.413206  1
  Sr  Sr5  1  0.647621  0.897736  0.935090  1
  Sr  Sr6  1  0.860915  0.389135  0.870564  1
  Sr  Sr7  1  0.907466  0.022796  0.234337  1
  Sr  Sr8  1  0.926060  0.612000  0.195708  1
  B  B9  1  0.221266  0.219903  0.102234  1
  B  B10  1  0.412401  0.589772  0.111431  1
  B  B11  1  0.439502  0.314658  0.121283  1
  B  B12  1  0.609515  0.013892  0.587847  1
  B  B13  1  0.685799  0.724537  0.594322  1
  B  B14  1  0.853633  0.083109  0.609780  1
  B  B15  1  0.946249  0.792186  0.587291  1
