# generated using pymatgen
data_Sr11B7
_symmetry_space_group_name_H-M   P1
_cell_length_a   5.24315044
_cell_length_b   6.48080388
_cell_length_c   8.17761825
_cell_angle_alpha   71.08111608
_cell_angle_beta   84.68700112
_cell_angle_gamma   76.79742685
_symmetry_Int_Tables_number   1
_chemical_formula_structural   Sr11B7
_chemical_formula_sum   'Sr11 B7'
_cell_volume   255.86320781
_cell_formula_units_Z   1
loop_
 _symmetry_equiv_pos_site_id
 _symmetry_equiv_pos_as_xyz
  1  'x, y, z'
loop_
 _atom_site_type_symbol
 _atom_site_label
 _atom_site_symmetry_multiplicity
 _atom_site_fract_x
 _atom_site_fract_y
 _atom_site_fract_z
 _atom_site_occupancy
  Sr  Sr0  1  0.129404  0.842862  0.474734  1
  Sr  Sr1  1  0.218978  0.505699  0.994856  1
  Sr  Sr2  1  0.326557  0.005386  0.911424  1
  Sr  Sr3  1  0.339155  0.479239  0.323389  1
  Sr  Sr4  1  0.483848  0.016598  0.210699  1
  Sr  Sr5  1  0.548228  0.675593  0.733459  1
  Sr  Sr6  1  0.576396  0.292414  0.670386  1
  Sr  Sr7  1  0.776344  0.631223  0.416930  1
  Sr  Sr8  1  0.836050  0.265351  0.962099  1
  Sr  Sr9  1  0.906975  0.261861  0.295146  1
  Sr  Sr10  1  0.920975  0.886125  0.773578  1
  B  B11  1  0.029447  0.879013  0.169806  1
  B  B12  1  0.080659  0.473610  0.696098  1
  B  B13  1  0.095484  0.274778  0.612519  1
  B  B14  1  0.319888  0.099061  0.560584  1
  B  B15  1  0.608241  0.015894  0.499753  1
  B  B16  1  0.667379  0.630328  0.059427  1
  B  B17  1  0.851377  0.767226  0.097705  1
