# generated using pymatgen
data_Sr13B3
_symmetry_space_group_name_H-M   P1
_cell_length_a   6.53555187
_cell_length_b   7.05024219
_cell_length_c   7.50133234
_cell_angle_alpha   114.14307653
_cell_angle_beta   92.69821321
_cell_angle_gamma   116.09172697
_symmetry_Int_Tables_number   1
_chemical_formula_structural   Sr13B3
_chemical_formula_sum   'Sr13 B3'
_cell_volume   272.18403848
_cell_formula_units_Z   1
loop_
 _symmetry_equiv_pos_site_id
 _symmetry_equiv_pos_as_xyz
  1  'x, y, z'
loop_
 _atom_site_type_symbol
 _atom_site_label
 _atom_site_symmetry_multiplicity
 _atom_site_fract_x
 _atom_site_fract_y
 _atom_site_fract_z
 _atom_site_occupancy
  Sr  Sr0  1  0.001008  0.020595  0.665123  1
  Sr  Sr1  1  0.058551  0.414211  0.010294  1
  Sr  Sr2  1  0.084333  0.290759  0.347065  1
  Sr  Sr3  1  0.226618  0.068478  0.016694  1
  Sr  Sr4  1  0.272981  0.641010  0.770392  1
  Sr  Sr5  1  0.393494  0.175687  0.530942  1
  Sr  Sr6  1  0.513977  0.899409  0.224920  1
  Sr  Sr7  1  0.524553  0.687424  0.454130  1
  Sr  Sr8  1  0.551792  0.511338  0.944427  1
  Sr  Sr9  1  0.579608  0.089245  0.798989  1
  Sr  Sr10  1  0.714081  0.372314  0.271226  1
  Sr  Sr11  1  0.844397  0.615562  0.707635  1
  Sr  Sr12  1  0.967600  0.799549  0.222898  1
  B  B13  1  0.156282  0.728429  0.480288  1
  B  B14  1  0.777177  0.960600  0.979666  1
  B  B15  1  0.816707  0.211446  0.566191  1
