# generated using pymatgen
data_Sr2B13
_symmetry_space_group_name_H-M   I4/mmm
_cell_length_a   4.18118713
_cell_length_b   4.18118713
_cell_length_c   13.02555671
_cell_angle_alpha   90.00000000
_cell_angle_beta   90.00000000
_cell_angle_gamma   90.00000000
_symmetry_Int_Tables_number   139
_chemical_formula_structural   Sr2B13
_chemical_formula_sum   'Sr4 B26'
_cell_volume   227.71702583
_cell_formula_units_Z   2
loop_
 _symmetry_equiv_pos_site_id
 _symmetry_equiv_pos_as_xyz
  1  'x, y, z'
  2  '-x, -y, -z'
  3  '-x, y, -z'
  4  'x, -y, z'
  5  'x+1/2, y+1/2, z+1/2'
  6  '-x+1/2, -y+1/2, -z+1/2'
  7  '-x+1/2, y+1/2, -z+1/2'
  8  'x+1/2, -y+1/2, z+1/2'
loop_
 _atom_site_type_symbol
 _atom_site_label
 _atom_site_symmetry_multiplicity
 _atom_site_fract_x
 _atom_site_fract_y
 _atom_site_fract_z
 _atom_site_occupancy
  Sr  Sr0  4  0.000000  0.000000  0.284083  1
  B  B1  8  0.000000  0.296852  0.105382  1
  B  B2  8  0.221523  0.221523  0.007901  1
  B  B3  4  0.203148  0.500000  0.605382  1
  B  B4  4  0.203148  0.500000  0.394618  1
  B  B5  2  0.000000  0.000000  0.500000  1
