# generated using pymatgen
data_Sr8B7
_symmetry_space_group_name_H-M   P1
_cell_length_a   4.53574199
_cell_length_b   4.67184029
_cell_length_c   10.84391940
_cell_angle_alpha   91.26651621
_cell_angle_beta   97.96369821
_cell_angle_gamma   118.75224508
_symmetry_Int_Tables_number   1
_chemical_formula_structural   Sr8B7
_chemical_formula_sum   'Sr8 B7'
_cell_volume   198.46700422
_cell_formula_units_Z   1
loop_
 _symmetry_equiv_pos_site_id
 _symmetry_equiv_pos_as_xyz
  1  'x, y, z'
loop_
 _atom_site_type_symbol
 _atom_site_label
 _atom_site_symmetry_multiplicity
 _atom_site_fract_x
 _atom_site_fract_y
 _atom_site_fract_z
 _atom_site_occupancy
  Sr  Sr0  1  0.026832  0.019334  0.075742  1
  Sr  Sr1  1  0.048676  0.205567  0.836963  1
  Sr  Sr2  1  0.279122  0.837463  0.661780  1
  Sr  Sr3  1  0.451247  0.726218  0.265375  1
  Sr  Sr4  1  0.577413  0.479398  0.590423  1
  Sr  Sr5  1  0.703822  0.359699  0.101486  1
  Sr  Sr6  1  0.726402  0.547757  0.857008  1
  Sr  Sr7  1  0.840173  0.429753  0.358695  1
  B  B8  1  0.130244  0.081111  0.315111  1
  B  B9  1  0.306139  0.989812  0.433251  1
  B  B10  1  0.334128  0.672659  0.018444  1
  B  B11  1  0.429157  0.912975  0.911738  1
  B  B12  1  0.627345  0.972986  0.493003  1
  B  B13  1  0.941199  0.172658  0.602666  1
  B  B14  1  0.988915  0.024778  0.463450  1
