# generated using pymatgen
data_Sr12B7
_symmetry_space_group_name_H-M   P1
_cell_length_a   6.32175860
_cell_length_b   7.26737066
_cell_length_c   7.30997580
_cell_angle_alpha   60.43150153
_cell_angle_beta   68.66699737
_cell_angle_gamma   75.56095357
_symmetry_Int_Tables_number   1
_chemical_formula_structural   Sr12B7
_chemical_formula_sum   'Sr12 B7'
_cell_volume   271.07456944
_cell_formula_units_Z   1
loop_
 _symmetry_equiv_pos_site_id
 _symmetry_equiv_pos_as_xyz
  1  'x, y, z'
loop_
 _atom_site_type_symbol
 _atom_site_label
 _atom_site_symmetry_multiplicity
 _atom_site_fract_x
 _atom_site_fract_y
 _atom_site_fract_z
 _atom_site_occupancy
  Sr  Sr0  1  0.109480  0.545691  0.124893  1
  Sr  Sr1  1  0.173774  0.297208  0.786027  1
  Sr  Sr2  1  0.184209  0.038850  0.583235  1
  Sr  Sr3  1  0.262419  0.673235  0.376847  1
  Sr  Sr4  1  0.378106  0.079621  0.106043  1
  Sr  Sr5  1  0.445035  0.675929  0.690222  1
  Sr  Sr6  1  0.472567  0.311136  0.339273  1
  Sr  Sr7  1  0.688290  0.370152  0.934504  1
  Sr  Sr8  1  0.819844  0.821601  0.355935  1
  Sr  Sr9  1  0.843797  0.989218  0.936112  1
  Sr  Sr10  1  0.895550  0.174130  0.344998  1
  Sr  Sr11  1  0.912599  0.699138  0.752691  1
  B  B12  1  0.289134  0.895876  0.933850  1
  B  B13  1  0.524133  0.757992  0.987830  1
  B  B14  1  0.540085  0.009090  0.743303  1
  B  B15  1  0.627644  0.264064  0.655390  1
  B  B16  1  0.678309  0.635117  0.163594  1
  B  B17  1  0.683230  0.491852  0.419970  1
  B  B18  1  0.879196  0.395219  0.553393  1
