# generated using pymatgen
data_Sr2B13
_symmetry_space_group_name_H-M   Cm
_cell_length_a   8.01553381
_cell_length_b   4.38129331
_cell_length_c   6.67858761
_cell_angle_alpha   90.00000000
_cell_angle_beta   98.42396763
_cell_angle_gamma   90.00000000
_symmetry_Int_Tables_number   8
_chemical_formula_structural   Sr2B13
_chemical_formula_sum   'Sr4 B26'
_cell_volume   232.01090793
_cell_formula_units_Z   2
loop_
 _symmetry_equiv_pos_site_id
 _symmetry_equiv_pos_as_xyz
  1  'x, y, z'
  2  'x, -y, z'
  3  'x+1/2, y+1/2, z'
  4  'x+1/2, -y+1/2, z'
loop_
 _atom_site_type_symbol
 _atom_site_label
 _atom_site_symmetry_multiplicity
 _atom_site_fract_x
 _atom_site_fract_y
 _atom_site_fract_z
 _atom_site_occupancy
  Sr  Sr0  2  0.008602  0.000000  0.540997  1
  Sr  Sr1  2  0.201137  0.500000  0.716613  1
  B  B2  4  0.170578  0.313290  0.079367  1
  B  B3  4  0.248052  0.192505  0.343532  1
  B  B4  4  0.483878  0.308242  0.932337  1
  B  B5  2  0.134010  0.500000  0.319651  1
  B  B6  2  0.174578  0.000000  0.915603  1
  B  B7  2  0.290884  0.000000  0.142318  1
  B  B8  2  0.337391  0.000000  0.544752  1
  B  B9  2  0.372217  0.000000  0.788879  1
  B  B10  2  0.436654  0.000000  0.345950  1
  B  B11  2  0.489521  0.000000  0.098629  1
