# generated using pymatgen
data_Sr13B3
_symmetry_space_group_name_H-M   P1
_cell_length_a   6.11617121
_cell_length_b   6.84301407
_cell_length_c   7.28085599
_cell_angle_alpha   67.39887440
_cell_angle_beta   77.45864938
_cell_angle_gamma   89.67880979
_symmetry_Int_Tables_number   1
_chemical_formula_structural   Sr13B3
_chemical_formula_sum   'Sr13 B3'
_cell_volume   273.58485775
_cell_formula_units_Z   1
loop_
 _symmetry_equiv_pos_site_id
 _symmetry_equiv_pos_as_xyz
  1  'x, y, z'
loop_
 _atom_site_type_symbol
 _atom_site_label
 _atom_site_symmetry_multiplicity
 _atom_site_fract_x
 _atom_site_fract_y
 _atom_site_fract_z
 _atom_site_occupancy
  Sr  Sr0  1  0.089117  0.665021  0.206828  1
  Sr  Sr1  1  0.137338  0.224266  0.287503  1
  Sr  Sr2  1  0.260754  0.024309  0.644853  1
  Sr  Sr3  1  0.331869  0.417290  0.714750  1
  Sr  Sr4  1  0.353217  0.797437  0.390802  1
  Sr  Sr5  1  0.417099  0.670069  0.896994  1
  Sr  Sr6  1  0.583939  0.279473  0.067194  1
  Sr  Sr7  1  0.649006  0.507980  0.281802  1
  Sr  Sr8  1  0.681164  0.182230  0.639065  1
  Sr  Sr9  1  0.767205  0.908068  0.406371  1
  Sr  Sr10  1  0.854195  0.804297  0.798518  1
  Sr  Sr11  1  0.925866  0.509633  0.630826  1
  Sr  Sr12  1  0.981353  0.102432  0.984550  1
  B  B13  1  0.381183  0.011290  0.981098  1
  B  B14  1  0.594209  0.906295  0.056158  1
  B  B15  1  0.998993  0.476307  0.984049  1
