# generated using pymatgen
data_Sr16B3
_symmetry_space_group_name_H-M   P1
_cell_length_a   3.09447877
_cell_length_b   5.34921581
_cell_length_c   20.97610650
_cell_angle_alpha   85.10145383
_cell_angle_beta   88.63226975
_cell_angle_gamma   73.45646069
_symmetry_Int_Tables_number   1
_chemical_formula_structural   Sr16B3
_chemical_formula_sum   'Sr16 B3'
_cell_volume   331.62888383
_cell_formula_units_Z   1
loop_
 _symmetry_equiv_pos_site_id
 _symmetry_equiv_pos_as_xyz
  1  'x, y, z'
loop_
 _atom_site_type_symbol
 _atom_site_label
 _atom_site_symmetry_multiplicity
 _atom_site_fract_x
 _atom_site_fract_y
 _atom_site_fract_z
 _atom_site_occupancy
  Sr  Sr0  1  0.000365  0.749216  0.272782  1
  Sr  Sr1  1  0.027875  0.681991  0.421037  1
  Sr  Sr2  1  0.086096  0.356864  0.745623  1
  Sr  Sr3  1  0.102289  0.258405  0.977182  1
  Sr  Sr4  1  0.106054  0.340616  0.616030  1
  Sr  Sr5  1  0.203202  0.197953  0.227416  1
  Sr  Sr6  1  0.342704  0.691433  0.037655  1
  Sr  Sr7  1  0.375049  0.824989  0.658645  1
  Sr  Sr8  1  0.444443  0.816429  0.529823  1
  Sr  Sr9  1  0.516293  0.476000  0.860335  1
  Sr  Sr10  1  0.583244  0.657876  0.164173  1
  Sr  Sr11  1  0.698701  0.352273  0.345151  1
  Sr  Sr12  1  0.702801  0.270965  0.502473  1
  Sr  Sr13  1  0.763809  0.154418  0.104133  1
  Sr  Sr14  1  0.813715  0.892455  0.771932  1
  Sr  Sr15  1  0.814072  0.845037  0.928706  1
  B  B16  1  0.214226  0.083067  0.853075  1
  B  B17  1  0.322151  0.085292  0.418395  1
  B  B18  1  0.391269  0.963905  0.349273  1
