# generated using pymatgen
data_Sr3B2
_symmetry_space_group_name_H-M   Pmmn
_cell_length_a   3.10407625
_cell_length_b   4.23567669
_cell_length_c   10.68400509
_cell_angle_alpha   90.00000000
_cell_angle_beta   90.00000000
_cell_angle_gamma   90.00000000
_symmetry_Int_Tables_number   59
_chemical_formula_structural   Sr3B2
_chemical_formula_sum   'Sr6 B4'
_cell_volume   140.47183973
_cell_formula_units_Z   2
loop_
 _symmetry_equiv_pos_site_id
 _symmetry_equiv_pos_as_xyz
  1  'x, y, z'
  2  '-x, -y, z'
  3  'x+1/2, -y+1/2, -z'
  4  '-x+1/2, y+1/2, -z'
  5  '-x+1/2, -y+1/2, -z'
  6  'x+1/2, y+1/2, -z'
  7  '-x, y, z'
  8  'x, -y, z'
loop_
 _atom_site_type_symbol
 _atom_site_label
 _atom_site_symmetry_multiplicity
 _atom_site_fract_x
 _atom_site_fract_y
 _atom_site_fract_z
 _atom_site_occupancy
  Sr  Sr0  2  0.000000  0.000000  0.440641  1
  Sr  Sr1  2  0.000000  0.500000  0.084946  1
  Sr  Sr2  2  0.000000  0.500000  0.797068  1
  B  B3  2  0.000000  0.000000  0.674636  1
  B  B4  2  0.000000  0.500000  0.315862  1
