# generated using pymatgen
data_Sr3B13
_symmetry_space_group_name_H-M   Pm
_cell_length_a   4.76891250
_cell_length_b   5.00140695
_cell_length_c   5.77633423
_cell_angle_alpha   90.00000000
_cell_angle_beta   103.35078520
_cell_angle_gamma   90.00000000
_symmetry_Int_Tables_number   6
_chemical_formula_structural   Sr3B13
_chemical_formula_sum   'Sr3 B13'
_cell_volume   134.04954892
_cell_formula_units_Z   1
loop_
 _symmetry_equiv_pos_site_id
 _symmetry_equiv_pos_as_xyz
  1  'x, y, z'
  2  'x, -y, z'
loop_
 _atom_site_type_symbol
 _atom_site_label
 _atom_site_symmetry_multiplicity
 _atom_site_fract_x
 _atom_site_fract_y
 _atom_site_fract_z
 _atom_site_occupancy
  Sr  Sr0  1  0.033425  0.500000  0.786619  1
  Sr  Sr1  1  0.692241  0.000000  0.423807  1
  Sr  Sr2  1  0.715529  0.000000  0.865411  1
  B  B3  2  0.135321  0.175983  0.214219  1
  B  B4  2  0.247542  0.211276  0.513587  1
  B  B5  2  0.443201  0.316882  0.117265  1
  B  B6  2  0.823788  0.344464  0.172602  1
  B  B7  1  0.189332  0.000000  0.709481  1
  B  B8  1  0.270544  0.000000  0.013201  1
  B  B9  1  0.480022  0.500000  0.604477  1
  B  B10  1  0.580632  0.500000  0.919625  1
  B  B11  1  0.631503  0.500000  0.354277  1
