# generated using pymatgen
data_Sr17B4
_symmetry_space_group_name_H-M   P1
_cell_length_a   3.58273285
_cell_length_b   5.53570368
_cell_length_c   19.10024037
_cell_angle_alpha   92.90232205
_cell_angle_beta   95.28655897
_cell_angle_gamma   107.27528029
_symmetry_Int_Tables_number   1
_chemical_formula_structural   Sr17B4
_chemical_formula_sum   'Sr17 B4'
_cell_volume   358.97290109
_cell_formula_units_Z   1
loop_
 _symmetry_equiv_pos_site_id
 _symmetry_equiv_pos_as_xyz
  1  'x, y, z'
loop_
 _atom_site_type_symbol
 _atom_site_label
 _atom_site_symmetry_multiplicity
 _atom_site_fract_x
 _atom_site_fract_y
 _atom_site_fract_z
 _atom_site_occupancy
  Sr  Sr0  1  0.005302  0.242641  0.831681  1
  Sr  Sr1  1  0.030901  0.184361  0.266791  1
  Sr  Sr2  1  0.045549  0.380250  0.610236  1
  Sr  Sr3  1  0.088574  0.504340  0.958071  1
  Sr  Sr4  1  0.093647  0.749761  0.771452  1
  Sr  Sr5  1  0.288678  0.620475  0.446549  1
  Sr  Sr6  1  0.409534  0.916193  0.172240  1
  Sr  Sr7  1  0.409576  0.956043  0.903926  1
  Sr  Sr8  1  0.446567  0.213195  0.504928  1
  Sr  Sr9  1  0.482060  0.225859  0.032139  1
  Sr  Sr10  1  0.491472  0.318125  0.724809  1
  Sr  Sr11  1  0.578180  0.876378  0.668658  1
  Sr  Sr12  1  0.697010  0.549783  0.337941  1
  Sr  Sr13  1  0.728850  0.539786  0.196615  1
  Sr  Sr14  1  0.797519  0.831425  0.049035  1
  Sr  Sr15  1  0.822365  0.067923  0.396774  1
  Sr  Sr16  1  0.941531  0.813401  0.555148  1
  B  B17  1  0.052822  0.246308  0.131490  1
  B  B18  1  0.150406  0.501122  0.095454  1
  B  B19  1  0.303095  0.834469  0.301705  1
  B  B20  1  0.631217  0.593341  0.862987  1
