# generated using pymatgen
data_Sr4B11
_symmetry_space_group_name_H-M   P1
_cell_length_a   4.49448955
_cell_length_b   4.85201973
_cell_length_c   6.90005917
_cell_angle_alpha   84.61356922
_cell_angle_beta   76.83990388
_cell_angle_gamma   76.71016974
_symmetry_Int_Tables_number   1
_chemical_formula_structural   Sr4B11
_chemical_formula_sum   'Sr4 B11'
_cell_volume   142.45938609
_cell_formula_units_Z   1
loop_
 _symmetry_equiv_pos_site_id
 _symmetry_equiv_pos_as_xyz
  1  'x, y, z'
loop_
 _atom_site_type_symbol
 _atom_site_label
 _atom_site_symmetry_multiplicity
 _atom_site_fract_x
 _atom_site_fract_y
 _atom_site_fract_z
 _atom_site_occupancy
  Sr  Sr0  1  0.031759  0.574827  0.458509  1
  Sr  Sr1  1  0.209022  0.437873  0.036605  1
  Sr  Sr2  1  0.539642  0.276500  0.631179  1
  Sr  Sr3  1  0.703191  0.717126  0.873996  1
  B  B4  1  0.038052  0.117719  0.784740  1
  B  B5  1  0.116860  0.048597  0.546012  1
  B  B6  1  0.251496  0.804194  0.708558  1
  B  B7  1  0.275013  0.897567  0.177365  1
  B  B8  1  0.397610  0.091329  0.322321  1
  B  B9  1  0.468385  0.819850  0.494941  1
  B  B10  1  0.592727  0.714470  0.261518  1
  B  B11  1  0.685750  0.293657  0.224353  1
  B  B12  1  0.787748  0.174161  0.989231  1
  B  B13  1  0.905563  0.929292  0.159034  1
  B  B14  1  0.993914  0.108845  0.332727  1
