# generated using pymatgen
data_Sr5B13
_symmetry_space_group_name_H-M   P1
_cell_length_a   4.50803102
_cell_length_b   5.45605598
_cell_length_c   6.95026768
_cell_angle_alpha   96.91111177
_cell_angle_beta   95.00446505
_cell_angle_gamma   92.96751403
_symmetry_Int_Tables_number   1
_chemical_formula_structural   Sr5B13
_chemical_formula_sum   'Sr5 B13'
_cell_volume   168.72478383
_cell_formula_units_Z   1
loop_
 _symmetry_equiv_pos_site_id
 _symmetry_equiv_pos_as_xyz
  1  'x, y, z'
loop_
 _atom_site_type_symbol
 _atom_site_label
 _atom_site_symmetry_multiplicity
 _atom_site_fract_x
 _atom_site_fract_y
 _atom_site_fract_z
 _atom_site_occupancy
  Sr  Sr0  1  0.055227  0.849993  0.341241  1
  Sr  Sr1  1  0.338089  0.002285  0.017970  1
  Sr  Sr2  1  0.367330  0.460783  0.159726  1
  Sr  Sr3  1  0.569331  0.693331  0.524670  1
  Sr  Sr4  1  0.802149  0.695438  0.959015  1
  B  B5  1  0.033493  0.318957  0.399561  1
  B  B6  1  0.041756  0.506529  0.608461  1
  B  B7  1  0.083829  0.309859  0.796233  1
  B  B8  1  0.117239  0.793379  0.697337  1
  B  B9  1  0.273362  0.061051  0.668294  1
  B  B10  1  0.287652  0.569579  0.806310  1
  B  B11  1  0.392662  0.207835  0.489991  1
  B  B12  1  0.496698  0.310946  0.772598  1
  B  B13  1  0.657448  0.145186  0.347407  1
  B  B14  1  0.792627  0.246114  0.581588  1
  B  B15  1  0.812033  0.226249  0.938048  1
  B  B16  1  0.854442  0.241208  0.177853  1
  B  B17  1  0.907752  0.035974  0.735535  1
