# generated using pymatgen
data_Sr11B5
_symmetry_space_group_name_H-M   P1
_cell_length_a   4.51904662
_cell_length_b   5.19844454
_cell_length_c   10.89961444
_cell_angle_alpha   101.19021799
_cell_angle_beta   98.18670069
_cell_angle_gamma   96.48546078
_symmetry_Int_Tables_number   1
_chemical_formula_structural   Sr11B5
_chemical_formula_sum   'Sr11 B5'
_cell_volume   246.00633192
_cell_formula_units_Z   1
loop_
 _symmetry_equiv_pos_site_id
 _symmetry_equiv_pos_as_xyz
  1  'x, y, z'
loop_
 _atom_site_type_symbol
 _atom_site_label
 _atom_site_symmetry_multiplicity
 _atom_site_fract_x
 _atom_site_fract_y
 _atom_site_fract_z
 _atom_site_occupancy
  Sr  Sr0  1  0.054449  0.388885  0.828405  1
  Sr  Sr1  1  0.181926  0.158221  0.043049  1
  Sr  Sr2  1  0.303025  0.459060  0.335180  1
  Sr  Sr3  1  0.360841  0.059250  0.470971  1
  Sr  Sr4  1  0.460687  0.540614  0.634954  1
  Sr  Sr5  1  0.476200  0.812682  0.918610  1
  Sr  Sr6  1  0.503021  0.116936  0.753838  1
  Sr  Sr7  1  0.735759  0.194571  0.202576  1
  Sr  Sr8  1  0.797819  0.819662  0.342433  1
  Sr  Sr9  1  0.841512  0.577014  0.046386  1
  Sr  Sr10  1  0.969407  0.804578  0.599703  1
  B  B11  1  0.243275  0.915174  0.230590  1
  B  B12  1  0.389748  0.705519  0.141245  1
  B  B13  1  0.849556  0.349588  0.449107  1
  B  B14  1  0.910054  0.275656  0.583236  1
  B  B15  1  0.943879  0.855857  0.826167  1
