# generated using pymatgen
data_Sr3B14
_symmetry_space_group_name_H-M   P1
_cell_length_a   4.21044430
_cell_length_b   5.02096918
_cell_length_c   6.45673046
_cell_angle_alpha   96.26388812
_cell_angle_beta   96.59972746
_cell_angle_gamma   92.36409599
_symmetry_Int_Tables_number   1
_chemical_formula_structural   Sr3B14
_chemical_formula_sum   'Sr3 B14'
_cell_volume   134.58441436
_cell_formula_units_Z   1
loop_
 _symmetry_equiv_pos_site_id
 _symmetry_equiv_pos_as_xyz
  1  'x, y, z'
loop_
 _atom_site_type_symbol
 _atom_site_label
 _atom_site_symmetry_multiplicity
 _atom_site_fract_x
 _atom_site_fract_y
 _atom_site_fract_z
 _atom_site_occupancy
  Sr  Sr0  1  0.114707  0.008099  0.112800  1
  Sr  Sr1  1  0.348504  0.236079  0.598905  1
  Sr  Sr2  1  0.793652  0.356333  0.366960  1
  B  B3  1  0.238364  0.732166  0.446554  1
  B  B4  1  0.245250  0.771754  0.737133  1
  B  B5  1  0.248465  0.507870  0.922026  1
  B  B6  1  0.277379  0.539726  0.208553  1
  B  B7  1  0.557287  0.802509  0.330857  1
  B  B8  1  0.565986  0.303201  0.973524  1
  B  B9  1  0.567039  0.945565  0.892442  1
  B  B10  1  0.585776  0.685087  0.073600  1
  B  B11  1  0.598561  0.748208  0.616576  1
  B  B12  1  0.891651  0.283822  0.824029  1
  B  B13  1  0.893859  0.873147  0.474650  1
  B  B14  1  0.899101  0.963024  0.735133  1
  B  B15  1  0.904184  0.593744  0.764838  1
  B  B16  1  0.907692  0.507725  0.035083  1
