# generated using pymatgen
data_Sr3B11
_symmetry_space_group_name_H-M   P1
_cell_length_a   4.61209797
_cell_length_b   5.55416504
_cell_length_c   5.58655546
_cell_angle_alpha   119.27089338
_cell_angle_beta   101.92298461
_cell_angle_gamma   92.79809025
_symmetry_Int_Tables_number   1
_chemical_formula_structural   Sr3B11
_chemical_formula_sum   'Sr3 B11'
_cell_volume   120.24501952
_cell_formula_units_Z   1
loop_
 _symmetry_equiv_pos_site_id
 _symmetry_equiv_pos_as_xyz
  1  'x, y, z'
loop_
 _atom_site_type_symbol
 _atom_site_label
 _atom_site_symmetry_multiplicity
 _atom_site_fract_x
 _atom_site_fract_y
 _atom_site_fract_z
 _atom_site_occupancy
  Sr  Sr0  1  0.269665  0.293871  0.334811  1
  Sr  Sr1  1  0.398420  0.537160  0.889108  1
  Sr  Sr2  1  0.481269  0.810020  0.444012  1
  B  B3  1  0.013924  0.033809  0.521573  1
  B  B4  1  0.114666  0.918473  0.760622  1
  B  B5  1  0.519542  0.046472  0.960410  1
  B  B6  1  0.743883  0.072104  0.262802  1
  B  B7  1  0.749674  0.368999  0.218931  1
  B  B8  1  0.834118  0.866790  0.895816  1
  B  B9  1  0.845150  0.307302  0.664238  1
  B  B10  1  0.855097  0.170126  0.880043  1
  B  B11  1  0.860069  0.561341  0.589303  1
  B  B12  1  0.934075  0.501670  0.064360  1
  B  B13  1  0.963529  0.825410  0.180393  1
