# generated using pymatgen
data_Sr3B11
_symmetry_space_group_name_H-M   P1
_cell_length_a   4.06116863
_cell_length_b   5.33620113
_cell_length_c   5.88109997
_cell_angle_alpha   79.25848180
_cell_angle_beta   87.21782826
_cell_angle_gamma   77.53083317
_symmetry_Int_Tables_number   1
_chemical_formula_structural   Sr3B11
_chemical_formula_sum   'Sr3 B11'
_cell_volume   122.25922100
_cell_formula_units_Z   1
loop_
 _symmetry_equiv_pos_site_id
 _symmetry_equiv_pos_as_xyz
  1  'x, y, z'
loop_
 _atom_site_type_symbol
 _atom_site_label
 _atom_site_symmetry_multiplicity
 _atom_site_fract_x
 _atom_site_fract_y
 _atom_site_fract_z
 _atom_site_occupancy
  Sr  Sr0  1  0.260110  0.498184  0.054634  1
  Sr  Sr1  1  0.876422  0.178303  0.959635  1
  Sr  Sr2  1  0.950350  0.276457  0.445526  1
  B  B3  1  0.264997  0.863587  0.738485  1
  B  B4  1  0.338352  0.939034  0.231783  1
  B  B5  1  0.407500  0.419572  0.641800  1
  B  B6  1  0.408121  0.651067  0.410349  1
  B  B7  1  0.457766  0.109603  0.701591  1
  B  B8  1  0.483673  0.899340  0.957625  1
  B  B9  1  0.582484  0.916157  0.479357  1
  B  B10  1  0.612392  0.631852  0.688535  1
  B  B11  1  0.706587  0.722671  0.182061  1
  B  B12  1  0.965896  0.745726  0.635287  1
  B  B13  1  0.993951  0.811829  0.332073  1
