# generated using pymatgen
data_Sr7B10
_symmetry_space_group_name_H-M   P1
_cell_length_a   5.77796686
_cell_length_b   5.92973023
_cell_length_c   6.42565309
_cell_angle_alpha   73.70769836
_cell_angle_beta   68.50049104
_cell_angle_gamma   75.02205762
_symmetry_Int_Tables_number   1
_chemical_formula_structural   Sr7B10
_chemical_formula_sum   'Sr7 B10'
_cell_volume   193.60204711
_cell_formula_units_Z   1
loop_
 _symmetry_equiv_pos_site_id
 _symmetry_equiv_pos_as_xyz
  1  'x, y, z'
loop_
 _atom_site_type_symbol
 _atom_site_label
 _atom_site_symmetry_multiplicity
 _atom_site_fract_x
 _atom_site_fract_y
 _atom_site_fract_z
 _atom_site_occupancy
  Sr  Sr0  1  0.054040  0.120829  0.189712  1
  Sr  Sr1  1  0.111833  0.364956  0.557305  1
  Sr  Sr2  1  0.241063  0.929814  0.810511  1
  Sr  Sr3  1  0.471843  0.614165  0.262276  1
  Sr  Sr4  1  0.543243  0.985853  0.377760  1
  Sr  Sr5  1  0.672911  0.312790  0.573945  1
  Sr  Sr6  1  0.871061  0.805761  0.645160  1
  B  B7  1  0.221160  0.513547  0.084749  1
  B  B8  1  0.276432  0.475363  0.822070  1
  B  B9  1  0.472206  0.283889  0.020012  1
  B  B10  1  0.511704  0.560468  0.868124  1
  B  B11  1  0.545764  0.998465  0.985472  1
  B  B12  1  0.762871  0.402344  0.947835  1
  B  B13  1  0.789787  0.124939  0.929933  1
  B  B14  1  0.821911  0.840868  0.040457  1
  B  B15  1  0.954990  0.663479  0.234750  1
  B  B16  1  0.964107  0.561299  0.990919  1
