# generated using pymatgen
data_Sr8B9
_symmetry_space_group_name_H-M   P1
_cell_length_a   2.89383269
_cell_length_b   4.39151960
_cell_length_c   16.71657958
_cell_angle_alpha   94.69099793
_cell_angle_beta   91.60517175
_cell_angle_gamma   90.02424529
_symmetry_Int_Tables_number   1
_chemical_formula_structural   Sr8B9
_chemical_formula_sum   'Sr8 B9'
_cell_volume   211.64420310
_cell_formula_units_Z   1
loop_
 _symmetry_equiv_pos_site_id
 _symmetry_equiv_pos_as_xyz
  1  'x, y, z'
loop_
 _atom_site_type_symbol
 _atom_site_label
 _atom_site_symmetry_multiplicity
 _atom_site_fract_x
 _atom_site_fract_y
 _atom_site_fract_z
 _atom_site_occupancy
  Sr  Sr0  1  0.027208  0.233793  0.818937  1
  Sr  Sr1  1  0.424581  0.283636  0.006282  1
  Sr  Sr2  1  0.455275  0.843043  0.285852  1
  Sr  Sr3  1  0.458671  0.811873  0.111914  1
  Sr  Sr4  1  0.520240  0.714776  0.727904  1
  Sr  Sr5  1  0.520517  0.188369  0.633079  1
  Sr  Sr6  1  0.921192  0.761548  0.924072  1
  Sr  Sr7  1  0.990435  0.133805  0.481541  1
  B  B8  1  0.008773  0.668981  0.593278  1
  B  B9  1  0.449433  0.327902  0.178009  1
  B  B10  1  0.473488  0.375933  0.375260  1
  B  B11  1  0.485532  0.640225  0.451629  1
  B  B12  1  0.501980  0.666122  0.550382  1
  B  B13  1  0.947279  0.322718  0.128483  1
  B  B14  1  0.953194  0.310985  0.226576  1
  B  B15  1  0.965300  0.335885  0.323305  1
  B  B16  1  0.976448  0.606971  0.397384  1
