# generated using pymatgen
data_Sr5B7
_symmetry_space_group_name_H-M   P-1
_cell_length_a   4.57208148
_cell_length_b   4.77110438
_cell_length_c   7.02021420
_cell_angle_alpha   72.92661413
_cell_angle_beta   79.82294706
_cell_angle_gamma   70.31293923
_symmetry_Int_Tables_number   2
_chemical_formula_structural   Sr5B7
_chemical_formula_sum   'Sr5 B7'
_cell_volume   137.31661556
_cell_formula_units_Z   1
loop_
 _symmetry_equiv_pos_site_id
 _symmetry_equiv_pos_as_xyz
  1  'x, y, z'
  2  '-x, -y, -z'
loop_
 _atom_site_type_symbol
 _atom_site_label
 _atom_site_symmetry_multiplicity
 _atom_site_fract_x
 _atom_site_fract_y
 _atom_site_fract_z
 _atom_site_occupancy
  Sr  Sr0  2  0.022202  0.023310  0.756552  1
  Sr  Sr1  2  0.235539  0.531908  0.614320  1
  Sr  Sr2  1  0.500000  0.000000  0.000000  1
  B  B3  2  0.124408  0.537911  0.047606  1
  B  B4  2  0.338620  0.387259  0.231136  1
  B  B5  2  0.397658  0.076443  0.408463  1
  B  B6  1  0.500000  0.500000  0.000000  1
