# generated using pymatgen
data_Sr3B
_symmetry_space_group_name_H-M   R-3
_cell_length_a   12.11238868
_cell_length_b   12.11238868
_cell_length_c   3.10818366
_cell_angle_alpha   90.00000000
_cell_angle_beta   90.00000000
_cell_angle_gamma   120.00000000
_symmetry_Int_Tables_number   148
_chemical_formula_structural   Sr3B
_chemical_formula_sum   'Sr18 B6'
_cell_volume   394.90888199
_cell_formula_units_Z   6
loop_
 _symmetry_equiv_pos_site_id
 _symmetry_equiv_pos_as_xyz
  1  'x, y, z'
  2  '-x, -y, -z'
  3  '-y, x-y, z'
  4  'y, -x+y, -z'
  5  '-x+y, -x, z'
  6  'x-y, x, -z'
  7  'x+2/3, y+1/3, z+1/3'
  8  '-x+2/3, -y+1/3, -z+1/3'
  9  '-y+2/3, x-y+1/3, z+1/3'
  10  'y+2/3, -x+y+1/3, -z+1/3'
  11  '-x+y+2/3, -x+1/3, z+1/3'
  12  'x-y+2/3, x+1/3, -z+1/3'
  13  'x+1/3, y+2/3, z+2/3'
  14  '-x+1/3, -y+2/3, -z+2/3'
  15  '-y+1/3, x-y+2/3, z+2/3'
  16  'y+1/3, -x+y+2/3, -z+2/3'
  17  '-x+y+1/3, -x+2/3, z+2/3'
  18  'x-y+1/3, x+2/3, -z+2/3'
loop_
 _atom_site_type_symbol
 _atom_site_label
 _atom_site_symmetry_multiplicity
 _atom_site_fract_x
 _atom_site_fract_y
 _atom_site_fract_z
 _atom_site_occupancy
  Sr  Sr0  18  0.013412  0.208954  0.245120  1
  B  B1  6  0.000000  0.000000  0.250095  1
