# generated using pymatgen
data_Sr13B2
_symmetry_space_group_name_H-M   Pm
_cell_length_a   2.91955771
_cell_length_b   4.56569081
_cell_length_c   20.11383602
_cell_angle_alpha   90.00000000
_cell_angle_beta   93.70928064
_cell_angle_gamma   90.00000000
_symmetry_Int_Tables_number   6
_chemical_formula_structural   Sr13B2
_chemical_formula_sum   'Sr13 B2'
_cell_volume   267.55171118
_cell_formula_units_Z   1
loop_
 _symmetry_equiv_pos_site_id
 _symmetry_equiv_pos_as_xyz
  1  'x, y, z'
  2  'x, -y, z'
loop_
 _atom_site_type_symbol
 _atom_site_label
 _atom_site_symmetry_multiplicity
 _atom_site_fract_x
 _atom_site_fract_y
 _atom_site_fract_z
 _atom_site_occupancy
  Sr  Sr0  1  0.047003  0.000000  0.574605  1
  Sr  Sr1  1  0.068124  0.500000  0.345420  1
  Sr  Sr2  1  0.104620  0.500000  0.491194  1
  Sr  Sr3  1  0.167242  0.500000  0.781446  1
  Sr  Sr4  1  0.181074  0.000000  0.866212  1
  Sr  Sr5  1  0.391035  0.500000  0.085194  1
  Sr  Sr6  1  0.421063  0.000000  0.159271  1
  Sr  Sr7  1  0.609572  0.500000  0.634960  1
  Sr  Sr8  1  0.655307  0.000000  0.720110  1
  Sr  Sr9  1  0.655508  0.000000  0.428412  1
  Sr  Sr10  1  0.717384  0.500000  0.927635  1
  Sr  Sr11  1  0.825474  0.000000  0.011048  1
  Sr  Sr12  1  0.963368  0.000000  0.275367  1
  B  B13  1  0.469350  0.500000  0.229064  1
  B  B14  1  0.957005  0.500000  0.202854  1
