# generated using pymatgen
data_Sr3B
_symmetry_space_group_name_H-M   Amm2
_cell_length_a   3.01195941
_cell_length_b   7.19527760
_cell_length_c   11.81100492
_cell_angle_alpha   90.00000000
_cell_angle_beta   90.00000000
_cell_angle_gamma   90.00000000
_symmetry_Int_Tables_number   38
_chemical_formula_structural   Sr3B
_chemical_formula_sum   'Sr12 B4'
_cell_volume   255.96672982
_cell_formula_units_Z   4
loop_
 _symmetry_equiv_pos_site_id
 _symmetry_equiv_pos_as_xyz
  1  'x, y, z'
  2  '-x, -y, z'
  3  '-x, y, z'
  4  'x, -y, z'
  5  'x, y+1/2, z+1/2'
  6  '-x, -y+1/2, z+1/2'
  7  '-x, y+1/2, z+1/2'
  8  'x, -y+1/2, z+1/2'
loop_
 _atom_site_type_symbol
 _atom_site_label
 _atom_site_symmetry_multiplicity
 _atom_site_fract_x
 _atom_site_fract_y
 _atom_site_fract_z
 _atom_site_occupancy
  Sr  Sr0  4  0.000000  0.192089  0.910517  1
  Sr  Sr1  4  0.500000  0.217163  0.114968  1
  Sr  Sr2  2  0.000000  0.000000  0.277502  1
  Sr  Sr3  2  0.000000  0.000000  0.710825  1
  B  B4  2  0.000000  0.000000  0.506895  1
  B  B5  2  0.500000  0.000000  0.469690  1
