# generated using pymatgen
data_Sr13B
_symmetry_space_group_name_H-M   P-1
_cell_length_a   5.44833583
_cell_length_b   5.44621368
_cell_length_c   10.47720231
_cell_angle_alpha   95.07753940
_cell_angle_beta   99.56392930
_cell_angle_gamma   119.95954145
_symmetry_Int_Tables_number   2
_chemical_formula_structural   Sr13B
_chemical_formula_sum   'Sr13 B1'
_cell_volume   260.19787660
_cell_formula_units_Z   1
loop_
 _symmetry_equiv_pos_site_id
 _symmetry_equiv_pos_as_xyz
  1  'x, y, z'
  2  '-x, -y, -z'
loop_
 _atom_site_type_symbol
 _atom_site_label
 _atom_site_symmetry_multiplicity
 _atom_site_fract_x
 _atom_site_fract_y
 _atom_site_fract_z
 _atom_site_occupancy
  Sr  Sr0  2  0.053312  0.638508  0.624791  1
  Sr  Sr1  2  0.081962  0.900518  0.273716  1
  Sr  Sr2  2  0.157299  0.599759  0.900713  1
  Sr  Sr3  2  0.253889  0.228536  0.075523  1
  Sr  Sr4  2  0.466586  0.464464  0.632244  1
  Sr  Sr5  2  0.487195  0.157825  0.832526  1
  Sr  Sr6  1  0.500000  0.000000  0.500000  1
  B  B7  1  0.000000  0.000000  0.500000  1
