# generated using pymatgen
data_Sr5B2
_symmetry_space_group_name_H-M   Pm
_cell_length_a   3.08122953
_cell_length_b   4.27738524
_cell_length_c   16.62935750
_cell_angle_alpha   90.00000000
_cell_angle_beta   92.13537946
_cell_angle_gamma   90.00000000
_symmetry_Int_Tables_number   6
_chemical_formula_structural   Sr5B2
_chemical_formula_sum   'Sr10 B4'
_cell_volume   219.01617932
_cell_formula_units_Z   2
loop_
 _symmetry_equiv_pos_site_id
 _symmetry_equiv_pos_as_xyz
  1  'x, y, z'
  2  'x, -y, z'
loop_
 _atom_site_type_symbol
 _atom_site_label
 _atom_site_symmetry_multiplicity
 _atom_site_fract_x
 _atom_site_fract_y
 _atom_site_fract_z
 _atom_site_occupancy
  Sr  Sr0  1  0.010945  0.500000  0.551701  1
  Sr  Sr1  1  0.306407  0.000000  0.454094  1
  Sr  Sr2  1  0.464642  0.000000  0.812827  1
  Sr  Sr3  1  0.475474  0.000000  0.272974  1
  Sr  Sr4  1  0.490813  0.500000  0.041698  1
  Sr  Sr5  1  0.566937  0.000000  0.632262  1
  Sr  Sr6  1  0.770448  0.500000  0.375056  1
  Sr  Sr7  1  0.939575  0.500000  0.733031  1
  Sr  Sr8  1  0.990556  0.000000  0.964601  1
  Sr  Sr9  1  0.997192  0.500000  0.194049  1
  B  B10  1  0.003615  0.000000  0.114915  1
  B  B11  1  0.006496  0.500000  0.883901  1
  B  B12  1  0.504277  0.000000  0.122809  1
  B  B13  1  0.506805  0.500000  0.891054  1
