# generated using pymatgen
data_Sr17B
_symmetry_space_group_name_H-M   Amm2
_cell_length_a   4.42402832
_cell_length_b   28.69934401
_cell_length_c   5.25006552
_cell_angle_alpha   90.00000000
_cell_angle_beta   90.00000000
_cell_angle_gamma   90.00000000
_symmetry_Int_Tables_number   38
_chemical_formula_structural   Sr17B
_chemical_formula_sum   'Sr34 B2'
_cell_volume   666.58354933
_cell_formula_units_Z   2
loop_
 _symmetry_equiv_pos_site_id
 _symmetry_equiv_pos_as_xyz
  1  'x, y, z'
  2  '-x, -y, z'
  3  '-x, y, z'
  4  'x, -y, z'
  5  'x, y+1/2, z+1/2'
  6  '-x, -y+1/2, z+1/2'
  7  '-x, y+1/2, z+1/2'
  8  'x, -y+1/2, z+1/2'
loop_
 _atom_site_type_symbol
 _atom_site_label
 _atom_site_symmetry_multiplicity
 _atom_site_fract_x
 _atom_site_fract_y
 _atom_site_fract_z
 _atom_site_occupancy
  Sr  Sr0  4  0.000000  0.047179  0.327169  1
  Sr  Sr1  4  0.000000  0.112114  0.825704  1
  Sr  Sr2  4  0.000000  0.159083  0.316278  1
  Sr  Sr3  4  0.000000  0.226898  0.815143  1
  Sr  Sr4  4  0.500000  0.050344  0.680755  1
  Sr  Sr5  4  0.500000  0.098066  0.170279  1
  Sr  Sr6  4  0.500000  0.169451  0.668821  1
  Sr  Sr7  4  0.500000  0.214950  0.166670  1
  Sr  Sr8  2  0.000000  0.000000  0.874911  1
  B  B9  2  0.500000  0.000000  0.174240  1
