# generated using pymatgen
data_Sr2B
_symmetry_space_group_name_H-M   P-1
_cell_length_a   3.07636320
_cell_length_b   4.28528836
_cell_length_c   13.69007201
_cell_angle_alpha   90.33220392
_cell_angle_beta   95.10735146
_cell_angle_gamma   90.25862785
_symmetry_Int_Tables_number   2
_chemical_formula_structural   Sr2B
_chemical_formula_sum   'Sr8 B4'
_cell_volume   179.75576167
_cell_formula_units_Z   4
loop_
 _symmetry_equiv_pos_site_id
 _symmetry_equiv_pos_as_xyz
  1  'x, y, z'
  2  '-x, -y, -z'
loop_
 _atom_site_type_symbol
 _atom_site_label
 _atom_site_symmetry_multiplicity
 _atom_site_fract_x
 _atom_site_fract_y
 _atom_site_fract_z
 _atom_site_occupancy
  Sr  Sr0  2  0.149316  0.765479  0.765883  1
  Sr  Sr1  2  0.269444  0.244438  0.046979  1
  Sr  Sr2  2  0.274840  0.246287  0.461411  1
  Sr  Sr3  2  0.405323  0.736772  0.325706  1
  B  B4  2  0.185242  0.268841  0.862963  1
  B  B5  2  0.317189  0.744142  0.142902  1
