# generated using pymatgen
data_Sr7B2
_symmetry_space_group_name_H-M   Imm2
_cell_length_a   2.95500705
_cell_length_b   18.05372585
_cell_length_c   5.58435570
_cell_angle_alpha   90.00000000
_cell_angle_beta   90.00000000
_cell_angle_gamma   90.00000000
_symmetry_Int_Tables_number   44
_chemical_formula_structural   Sr7B2
_chemical_formula_sum   'Sr14 B4'
_cell_volume   297.91916221
_cell_formula_units_Z   2
loop_
 _symmetry_equiv_pos_site_id
 _symmetry_equiv_pos_as_xyz
  1  'x, y, z'
  2  '-x, -y, z'
  3  '-x, y, z'
  4  'x, -y, z'
  5  'x+1/2, y+1/2, z+1/2'
  6  '-x+1/2, -y+1/2, z+1/2'
  7  '-x+1/2, y+1/2, z+1/2'
  8  'x+1/2, -y+1/2, z+1/2'
loop_
 _atom_site_type_symbol
 _atom_site_label
 _atom_site_symmetry_multiplicity
 _atom_site_fract_x
 _atom_site_fract_y
 _atom_site_fract_z
 _atom_site_occupancy
  Sr  Sr0  4  0.000000  0.121713  0.097919  1
  Sr  Sr1  4  0.000000  0.233842  0.448771  1
  Sr  Sr2  4  0.000000  0.388295  0.154722  1
  Sr  Sr3  2  0.000000  0.000000  0.385847  1
  B  B4  2  0.000000  0.000000  0.869503  1
  B  B5  2  0.000000  0.500000  0.456997  1
