# generated using pymatgen
data_Sr11B2
_symmetry_space_group_name_H-M   Pm
_cell_length_a   2.93819822
_cell_length_b   4.57817469
_cell_length_c   16.96902166
_cell_angle_alpha   90.00000000
_cell_angle_beta   90.57038131
_cell_angle_gamma   90.00000000
_symmetry_Int_Tables_number   6
_chemical_formula_structural   Sr11B2
_chemical_formula_sum   'Sr11 B2'
_cell_volume   228.24892221
_cell_formula_units_Z   1
loop_
 _symmetry_equiv_pos_site_id
 _symmetry_equiv_pos_as_xyz
  1  'x, y, z'
  2  'x, -y, z'
loop_
 _atom_site_type_symbol
 _atom_site_label
 _atom_site_symmetry_multiplicity
 _atom_site_fract_x
 _atom_site_fract_y
 _atom_site_fract_z
 _atom_site_occupancy
  Sr  Sr0  1  0.021582  0.000000  0.218737  1
  Sr  Sr1  1  0.054135  0.500000  0.661143  1
  Sr  Sr2  1  0.055194  0.000000  0.561389  1
  Sr  Sr3  1  0.103956  0.500000  0.306100  1
  Sr  Sr4  1  0.192848  0.000000  0.903080  1
  Sr  Sr5  1  0.503323  0.000000  0.081540  1
  Sr  Sr6  1  0.529118  0.000000  0.732789  1
  Sr  Sr7  1  0.541216  0.500000  0.490218  1
  Sr  Sr8  1  0.601578  0.000000  0.391539  1
  Sr  Sr9  1  0.624585  0.500000  0.831395  1
  Sr  Sr10  1  0.631099  0.500000  0.001116  1
  B  B11  1  0.063503  0.500000  0.137454  1
  B  B12  1  0.564442  0.500000  0.167319  1
