# generated using pymatgen
data_Sr9B4
_symmetry_space_group_name_H-M   Cm
_cell_length_a   30.54121402
_cell_length_b   4.29052016
_cell_length_c   3.06617542
_cell_angle_alpha   90.00000000
_cell_angle_beta   94.13831799
_cell_angle_gamma   90.00000000
_symmetry_Int_Tables_number   8
_chemical_formula_structural   Sr9B4
_chemical_formula_sum   'Sr18 B8'
_cell_volume   400.73700316
_cell_formula_units_Z   2
loop_
 _symmetry_equiv_pos_site_id
 _symmetry_equiv_pos_as_xyz
  1  'x, y, z'
  2  'x, -y, z'
  3  'x+1/2, y+1/2, z'
  4  'x+1/2, -y+1/2, z'
loop_
 _atom_site_type_symbol
 _atom_site_label
 _atom_site_symmetry_multiplicity
 _atom_site_fract_x
 _atom_site_fract_y
 _atom_site_fract_z
 _atom_site_occupancy
  Sr  Sr0  2  0.012583  0.000000  0.304161  1
  Sr  Sr1  2  0.057010  0.500000  0.869325  1
  Sr  Sr2  2  0.139381  0.500000  0.433241  1
  Sr  Sr3  2  0.181176  0.000000  0.975913  1
  Sr  Sr4  2  0.263096  0.000000  0.541518  1
  Sr  Sr5  2  0.307801  0.500000  0.098964  1
  Sr  Sr6  2  0.362495  0.000000  0.629769  1
  Sr  Sr7  2  0.410362  0.500000  0.121627  1
  Sr  Sr8  2  0.457367  0.000000  0.627647  1
  B  B9  2  0.095473  0.000000  0.394501  1
  B  B10  2  0.099160  0.000000  0.897682  1
  B  B11  2  0.221494  0.500000  0.505565  1
  B  B12  2  0.224959  0.500000  0.007800  1
