# generated using pymatgen
data_Sr13B
_symmetry_space_group_name_H-M   P1
_cell_length_a   5.40748371
_cell_length_b   5.41443045
_cell_length_c   10.43329208
_cell_angle_alpha   97.25594364
_cell_angle_beta   97.14609765
_cell_angle_gamma   118.81047225
_symmetry_Int_Tables_number   1
_chemical_formula_structural   Sr13B
_chemical_formula_sum   'Sr13 B1'
_cell_volume   259.41411711
_cell_formula_units_Z   1
loop_
 _symmetry_equiv_pos_site_id
 _symmetry_equiv_pos_as_xyz
  1  'x, y, z'
loop_
 _atom_site_type_symbol
 _atom_site_label
 _atom_site_symmetry_multiplicity
 _atom_site_fract_x
 _atom_site_fract_y
 _atom_site_fract_z
 _atom_site_occupancy
  Sr  Sr0  1  0.030269  0.244963  0.161738  1
  Sr  Sr1  1  0.258010  0.490293  0.718633  1
  Sr  Sr2  1  0.295841  0.192314  0.935387  1
  Sr  Sr3  1  0.301042  0.016351  0.612178  1
  Sr  Sr4  1  0.321569  0.552508  0.456413  1
  Sr  Sr5  1  0.412777  0.887013  0.272597  1
  Sr  Sr6  1  0.524371  0.796211  0.991459  1
  Sr  Sr7  1  0.625850  0.426677  0.202433  1
  Sr  Sr8  1  0.743397  0.393864  0.478947  1
  Sr  Sr9  1  0.748101  0.176282  0.815617  1
  Sr  Sr10  1  0.849220  0.699955  0.736317  1
  Sr  Sr11  1  0.974740  0.661825  0.025316  1
  Sr  Sr12  1  0.978929  0.950652  0.371090  1
  B  B13  1  0.789820  0.007581  0.575734  1
