# generated using pymatgen
data_Sr4B5
_symmetry_space_group_name_H-M   C2/m
_cell_length_a   8.08804349
_cell_length_b   4.58608086
_cell_length_c   5.94225842
_cell_angle_alpha   90.00000000
_cell_angle_beta   105.99816085
_cell_angle_gamma   90.00000000
_symmetry_Int_Tables_number   12
_chemical_formula_structural   Sr4B5
_chemical_formula_sum   'Sr8 B10'
_cell_volume   211.87628764
_cell_formula_units_Z   2
loop_
 _symmetry_equiv_pos_site_id
 _symmetry_equiv_pos_as_xyz
  1  'x, y, z'
  2  '-x, -y, -z'
  3  '-x, y, -z'
  4  'x, -y, z'
  5  'x+1/2, y+1/2, z'
  6  '-x+1/2, -y+1/2, -z'
  7  '-x+1/2, y+1/2, -z'
  8  'x+1/2, -y+1/2, z'
loop_
 _atom_site_type_symbol
 _atom_site_label
 _atom_site_symmetry_multiplicity
 _atom_site_fract_x
 _atom_site_fract_y
 _atom_site_fract_z
 _atom_site_occupancy
  Sr  Sr0  4  0.159512  0.000000  0.345770  1
  Sr  Sr1  4  0.190599  0.000000  0.813264  1
  B  B2  4  0.000000  0.315353  0.000000  1
  B  B3  4  0.019691  0.500000  0.773210  1
  B  B4  2  0.000000  0.500000  0.500000  1
