# generated using pymatgen
data_Sr15B
_symmetry_space_group_name_H-M   P1
_cell_length_a   5.37847975
_cell_length_b   5.41765334
_cell_length_c   11.71265020
_cell_angle_alpha   83.22121265
_cell_angle_beta   87.09354681
_cell_angle_gamma   61.95123457
_symmetry_Int_Tables_number   1
_chemical_formula_structural   Sr15B
_chemical_formula_sum   'Sr15 B1'
_cell_volume   299.09620799
_cell_formula_units_Z   1
loop_
 _symmetry_equiv_pos_site_id
 _symmetry_equiv_pos_as_xyz
  1  'x, y, z'
loop_
 _atom_site_type_symbol
 _atom_site_label
 _atom_site_symmetry_multiplicity
 _atom_site_fract_x
 _atom_site_fract_y
 _atom_site_fract_z
 _atom_site_occupancy
  Sr  Sr0  1  0.319781  0.469334  0.539024  1
  Sr  Sr1  1  0.320078  0.063529  0.245695  1
  Sr  Sr2  1  0.346464  0.020003  0.746191  1
  Sr  Sr3  1  0.355699  0.733002  0.048164  1
  Sr  Sr4  1  0.357180  0.504028  0.840571  1
  Sr  Sr5  1  0.474312  0.482108  0.300007  1
  Sr  Sr6  1  0.487036  0.904087  0.511179  1
  Sr  Sr7  1  0.756894  0.864767  0.915244  1
  Sr  Sr8  1  0.781558  0.401772  0.667646  1
  Sr  Sr9  1  0.790412  0.148029  0.130710  1
  Sr  Sr10  1  0.914756  0.774213  0.363721  1
  Sr  Sr11  1  0.919446  0.840001  0.671952  1
  Sr  Sr12  1  0.929612  0.580321  0.140592  1
  Sr  Sr13  1  0.935656  0.234947  0.441038  1
  Sr  Sr14  1  0.942729  0.276782  0.910422  1
  B  B15  1  0.347262  0.230623  0.030198  1
