# generated using pymatgen
data_Sr11B2
_symmetry_space_group_name_H-M   Cm
_cell_length_a   6.08917243
_cell_length_b   28.34738595
_cell_length_c   2.97579339
_cell_angle_alpha   90.00000000
_cell_angle_beta   117.57811878
_cell_angle_gamma   90.00000000
_symmetry_Int_Tables_number   8
_chemical_formula_structural   Sr11B2
_chemical_formula_sum   'Sr22 B4'
_cell_volume   455.29641528
_cell_formula_units_Z   2
loop_
 _symmetry_equiv_pos_site_id
 _symmetry_equiv_pos_as_xyz
  1  'x, y, z'
  2  'x, -y, z'
  3  'x+1/2, y+1/2, z'
  4  'x+1/2, -y+1/2, z'
loop_
 _atom_site_type_symbol
 _atom_site_label
 _atom_site_symmetry_multiplicity
 _atom_site_fract_x
 _atom_site_fract_y
 _atom_site_fract_z
 _atom_site_occupancy
  Sr  Sr0  4  0.213468  0.348488  0.464342  1
  Sr  Sr1  4  0.233708  0.172188  0.496647  1
  Sr  Sr2  4  0.315773  0.261190  0.105367  1
  Sr  Sr3  4  0.374538  0.077493  0.089255  1
  Sr  Sr4  4  0.437070  0.425312  0.161888  1
  Sr  Sr5  2  0.172920  0.500000  0.386252  1
  B  B6  2  0.147188  0.000000  0.879379  1
  B  B7  2  0.229892  0.000000  0.458184  1
