# generated using pymatgen
data_Sr2B
_symmetry_space_group_name_H-M   C2/m
_cell_length_a   14.02017312
_cell_length_b   4.21908241
_cell_length_c   3.08939900
_cell_angle_alpha   90.00000000
_cell_angle_beta   98.57552326
_cell_angle_gamma   90.00000000
_symmetry_Int_Tables_number   12
_chemical_formula_structural   Sr2B
_chemical_formula_sum   'Sr8 B4'
_cell_volume   180.70189380
_cell_formula_units_Z   4
loop_
 _symmetry_equiv_pos_site_id
 _symmetry_equiv_pos_as_xyz
  1  'x, y, z'
  2  '-x, -y, -z'
  3  '-x, y, -z'
  4  'x, -y, z'
  5  'x+1/2, y+1/2, z'
  6  '-x+1/2, -y+1/2, -z'
  7  '-x+1/2, y+1/2, -z'
  8  'x+1/2, -y+1/2, z'
loop_
 _atom_site_type_symbol
 _atom_site_label
 _atom_site_symmetry_multiplicity
 _atom_site_fract_x
 _atom_site_fract_y
 _atom_site_fract_z
 _atom_site_occupancy
  Sr  Sr0  4  0.091714  0.000000  0.795441  1
  Sr  Sr1  4  0.184291  0.500000  0.340410  1
  B  B2  4  0.005492  0.500000  0.253578  1
