# generated using pymatgen
data_Sr3B4
_symmetry_space_group_name_H-M   P-1
_cell_length_a   4.67708066
_cell_length_b   5.88053597
_cell_length_c   6.51552286
_cell_angle_alpha   76.98218910
_cell_angle_beta   84.57546450
_cell_angle_gamma   72.96474809
_symmetry_Int_Tables_number   2
_chemical_formula_structural   Sr3B4
_chemical_formula_sum   'Sr6 B8'
_cell_volume   166.85696579
_cell_formula_units_Z   2
loop_
 _symmetry_equiv_pos_site_id
 _symmetry_equiv_pos_as_xyz
  1  'x, y, z'
  2  '-x, -y, -z'
loop_
 _atom_site_type_symbol
 _atom_site_label
 _atom_site_symmetry_multiplicity
 _atom_site_fract_x
 _atom_site_fract_y
 _atom_site_fract_z
 _atom_site_occupancy
  Sr  Sr0  2  0.188246  0.701251  0.268185  1
  Sr  Sr1  2  0.232841  0.192565  0.031617  1
  Sr  Sr2  2  0.363075  0.231143  0.509699  1
  B  B3  2  0.053915  0.900245  0.604374  1
  B  B4  2  0.191534  0.609629  0.710022  1
  B  B5  2  0.263447  0.862313  0.799787  1
  B  B6  2  0.387786  0.582505  0.914134  1
