# generated using pymatgen
data_Sr11B6
_symmetry_space_group_name_H-M   Pm
_cell_length_a   3.06542574
_cell_length_b   4.30884521
_cell_length_c   18.91416131
_cell_angle_alpha   90.00000000
_cell_angle_beta   92.13815104
_cell_angle_gamma   90.00000000
_symmetry_Int_Tables_number   6
_chemical_formula_structural   Sr11B6
_chemical_formula_sum   'Sr11 B6'
_cell_volume   249.65272377
_cell_formula_units_Z   1
loop_
 _symmetry_equiv_pos_site_id
 _symmetry_equiv_pos_as_xyz
  1  'x, y, z'
  2  'x, -y, z'
loop_
 _atom_site_type_symbol
 _atom_site_label
 _atom_site_symmetry_multiplicity
 _atom_site_fract_x
 _atom_site_fract_y
 _atom_site_fract_z
 _atom_site_occupancy
  Sr  Sr0  1  0.008254  0.000000  0.655450  1
  Sr  Sr1  1  0.049678  0.500000  0.856818  1
  Sr  Sr2  1  0.091615  0.000000  0.364676  1
  Sr  Sr3  1  0.153109  0.500000  0.168977  1
  Sr  Sr4  1  0.299662  0.500000  0.017835  1
  Sr  Sr5  1  0.462439  0.000000  0.525183  1
  Sr  Sr6  1  0.520382  0.500000  0.722736  1
  Sr  Sr7  1  0.568369  0.000000  0.238370  1
  Sr  Sr8  1  0.599654  0.000000  0.924531  1
  Sr  Sr9  1  0.803112  0.000000  0.077850  1
  Sr  Sr10  1  0.929606  0.500000  0.449669  1
  B  B11  1  0.001541  0.500000  0.297217  1
  B  B12  1  0.032556  0.000000  0.787655  1
  B  B13  1  0.492869  0.500000  0.590945  1
  B  B14  1  0.507919  0.500000  0.319335  1
  B  B15  1  0.533681  0.000000  0.792812  1
  B  B16  1  0.990500  0.500000  0.584926  1
