# generated using pymatgen
data_Sr14B
_symmetry_space_group_name_H-M   C2/m
_cell_length_a   5.45184673
_cell_length_b   13.57502416
_cell_length_c   7.55280390
_cell_angle_alpha   90.00000000
_cell_angle_beta   92.14427321
_cell_angle_gamma   90.00000000
_symmetry_Int_Tables_number   12
_chemical_formula_structural   Sr14B
_chemical_formula_sum   'Sr28 B2'
_cell_volume   558.58368929
_cell_formula_units_Z   2
loop_
 _symmetry_equiv_pos_site_id
 _symmetry_equiv_pos_as_xyz
  1  'x, y, z'
  2  '-x, -y, -z'
  3  '-x, y, -z'
  4  'x, -y, z'
  5  'x+1/2, y+1/2, z'
  6  '-x+1/2, -y+1/2, -z'
  7  '-x+1/2, y+1/2, -z'
  8  'x+1/2, -y+1/2, z'
loop_
 _atom_site_type_symbol
 _atom_site_label
 _atom_site_symmetry_multiplicity
 _atom_site_fract_x
 _atom_site_fract_y
 _atom_site_fract_z
 _atom_site_occupancy
  Sr  Sr0  8  0.112496  0.205394  0.689256  1
  Sr  Sr1  8  0.243238  0.352609  0.935198  1
  Sr  Sr2  4  0.000000  0.382128  0.500000  1
  Sr  Sr3  4  0.105095  0.000000  0.338024  1
  Sr  Sr4  4  0.111268  0.500000  0.185886  1
  B  B5  2  0.000000  0.000000  0.000000  1
