# generated using pymatgen
data_Sr11B
_symmetry_space_group_name_H-M   C2/m
_cell_length_a   5.49808757
_cell_length_b   9.21757350
_cell_length_c   8.98153704
_cell_angle_alpha   90.00000000
_cell_angle_beta   102.91527068
_cell_angle_gamma   90.00000000
_symmetry_Int_Tables_number   12
_chemical_formula_structural   Sr11B
_chemical_formula_sum   'Sr22 B2'
_cell_volume   443.66036465
_cell_formula_units_Z   2
loop_
 _symmetry_equiv_pos_site_id
 _symmetry_equiv_pos_as_xyz
  1  'x, y, z'
  2  '-x, -y, -z'
  3  '-x, y, -z'
  4  'x, -y, z'
  5  'x+1/2, y+1/2, z'
  6  '-x+1/2, -y+1/2, -z'
  7  '-x+1/2, y+1/2, -z'
  8  'x+1/2, -y+1/2, z'
loop_
 _atom_site_type_symbol
 _atom_site_label
 _atom_site_symmetry_multiplicity
 _atom_site_fract_x
 _atom_site_fract_y
 _atom_site_fract_z
 _atom_site_occupancy
  Sr  Sr0  8  0.124241  0.212076  0.348457  1
  Sr  Sr1  4  0.000000  0.287478  0.000000  1
  Sr  Sr2  4  0.191259  0.000000  0.128565  1
  Sr  Sr3  4  0.215078  0.500000  0.234111  1
  Sr  Sr4  2  0.000000  0.500000  0.500000  1
  B  B5  2  0.000000  0.000000  0.500000  1
