# generated using pymatgen
data_Sr15B
_symmetry_space_group_name_H-M   Pmm2
_cell_length_a   4.50521095
_cell_length_b   12.62461540
_cell_length_c   5.20427667
_cell_angle_alpha   90.00000000
_cell_angle_beta   90.00000000
_cell_angle_gamma   90.00000000
_symmetry_Int_Tables_number   25
_chemical_formula_structural   Sr15B
_chemical_formula_sum   'Sr15 B1'
_cell_volume   296.00133093
_cell_formula_units_Z   1
loop_
 _symmetry_equiv_pos_site_id
 _symmetry_equiv_pos_as_xyz
  1  'x, y, z'
  2  '-x, -y, z'
  3  '-x, y, z'
  4  'x, -y, z'
loop_
 _atom_site_type_symbol
 _atom_site_label
 _atom_site_symmetry_multiplicity
 _atom_site_fract_x
 _atom_site_fract_y
 _atom_site_fract_z
 _atom_site_occupancy
  Sr  Sr0  2  0.000000  0.124379  0.906925  1
  Sr  Sr1  2  0.000000  0.272576  0.411395  1
  Sr  Sr2  2  0.000000  0.388652  0.907371  1
  Sr  Sr3  2  0.500000  0.130987  0.257731  1
  Sr  Sr4  2  0.500000  0.251336  0.756789  1
  Sr  Sr5  2  0.500000  0.388545  0.257969  1
  Sr  Sr6  1  0.000000  0.000000  0.402073  1
  Sr  Sr7  1  0.500000  0.000000  0.750632  1
  Sr  Sr8  1  0.500000  0.500000  0.704687  1
  B  B9  1  0.000000  0.500000  0.404159  1
