# generated using pymatgen
data_Sr2B9
_symmetry_space_group_name_H-M   C2/m
_cell_length_a   15.70425989
_cell_length_b   2.80803080
_cell_length_c   4.14193335
_cell_angle_alpha   90.00000000
_cell_angle_beta   97.62966216
_cell_angle_gamma   90.00000000
_symmetry_Int_Tables_number   12
_chemical_formula_structural   Sr2B9
_chemical_formula_sum   'Sr4 B18'
_cell_volume   181.03414313
_cell_formula_units_Z   2
loop_
 _symmetry_equiv_pos_site_id
 _symmetry_equiv_pos_as_xyz
  1  'x, y, z'
  2  '-x, -y, -z'
  3  '-x, y, -z'
  4  'x, -y, z'
  5  'x+1/2, y+1/2, z'
  6  '-x+1/2, -y+1/2, -z'
  7  '-x+1/2, y+1/2, -z'
  8  'x+1/2, -y+1/2, z'
loop_
 _atom_site_type_symbol
 _atom_site_label
 _atom_site_symmetry_multiplicity
 _atom_site_fract_x
 _atom_site_fract_y
 _atom_site_fract_z
 _atom_site_occupancy
  Sr  Sr0  4  0.133026  0.000000  0.562685  1
  B  B1  4  0.000289  0.500000  0.703191  1
  B  B2  4  0.075519  0.500000  0.043062  1
  B  B3  4  0.181072  0.500000  0.098715  1
  B  B4  4  0.239130  0.000000  0.117722  1
  B  B5  2  0.000000  0.000000  0.000000  1
