# generated using pymatgen
data_Sr11B
_symmetry_space_group_name_H-M   P1
_cell_length_a   5.38906178
_cell_length_b   5.39796456
_cell_length_c   8.89818934
_cell_angle_alpha   95.64579149
_cell_angle_beta   95.82660643
_cell_angle_gamma   119.19173579
_symmetry_Int_Tables_number   1
_chemical_formula_structural   Sr11B
_chemical_formula_sum   'Sr11 B1'
_cell_volume   221.52148256
_cell_formula_units_Z   1
loop_
 _symmetry_equiv_pos_site_id
 _symmetry_equiv_pos_as_xyz
  1  'x, y, z'
loop_
 _atom_site_type_symbol
 _atom_site_label
 _atom_site_symmetry_multiplicity
 _atom_site_fract_x
 _atom_site_fract_y
 _atom_site_fract_z
 _atom_site_occupancy
  Sr  Sr0  1  0.060589  0.305138  0.464333  1
  Sr  Sr1  1  0.112424  0.923169  0.054748  1
  Sr  Sr2  1  0.117787  0.760523  0.698390  1
  Sr  Sr3  1  0.271235  0.496197  0.197674  1
  Sr  Sr4  1  0.434390  0.092038  0.364629  1
  Sr  Sr5  1  0.483521  0.727370  0.937393  1
  Sr  Sr6  1  0.547941  0.339835  0.704663  1
  Sr  Sr7  1  0.610719  0.814120  0.564732  1
  Sr  Sr8  1  0.687526  0.336212  0.031910  1
  Sr  Sr9  1  0.850044  0.659028  0.339144  1
  Sr  Sr10  1  0.986998  0.193664  0.824677  1
  B  B11  1  0.758793  0.014269  0.202271  1
