# generated using pymatgen
data_Sr2B3
_symmetry_space_group_name_H-M   P-1
_cell_length_a   4.73004536
_cell_length_b   4.98176126
_cell_length_c   5.53023274
_cell_angle_alpha   101.45873546
_cell_angle_beta   105.05958609
_cell_angle_gamma   106.91865438
_symmetry_Int_Tables_number   2
_chemical_formula_structural   Sr2B3
_chemical_formula_sum   'Sr4 B6'
_cell_volume   114.96439447
_cell_formula_units_Z   2
loop_
 _symmetry_equiv_pos_site_id
 _symmetry_equiv_pos_as_xyz
  1  'x, y, z'
  2  '-x, -y, -z'
loop_
 _atom_site_type_symbol
 _atom_site_label
 _atom_site_symmetry_multiplicity
 _atom_site_fract_x
 _atom_site_fract_y
 _atom_site_fract_z
 _atom_site_occupancy
  Sr  Sr0  2  0.274513  0.537494  0.727871  1
  Sr  Sr1  2  0.362347  0.815223  0.249615  1
  B  B2  2  0.023440  0.956095  0.628792  1
  B  B3  2  0.147801  0.254855  0.220445  1
  B  B4  2  0.148252  0.082022  0.940300  1
