# generated using pymatgen
data_Sr4B
_symmetry_space_group_name_H-M   Cmc2_1
_cell_length_a   4.29395410
_cell_length_b   25.80199452
_cell_length_c   3.07144673
_cell_angle_alpha   90.00000000
_cell_angle_beta   90.00000000
_cell_angle_gamma   90.00000000
_symmetry_Int_Tables_number   36
_chemical_formula_structural   Sr4B
_chemical_formula_sum   'Sr16 B4'
_cell_volume   340.29350761
_cell_formula_units_Z   4
loop_
 _symmetry_equiv_pos_site_id
 _symmetry_equiv_pos_as_xyz
  1  'x, y, z'
  2  '-x, -y, z+1/2'
  3  '-x, y, z'
  4  'x, -y, z+1/2'
  5  'x+1/2, y+1/2, z'
  6  '-x+1/2, -y+1/2, z+1/2'
  7  '-x+1/2, y+1/2, z'
  8  'x+1/2, -y+1/2, z+1/2'
loop_
 _atom_site_type_symbol
 _atom_site_label
 _atom_site_symmetry_multiplicity
 _atom_site_fract_x
 _atom_site_fract_y
 _atom_site_fract_z
 _atom_site_occupancy
  Sr  Sr0  4  0.000000  0.099423  0.410228  1
  Sr  Sr1  4  0.000000  0.216189  0.459467  1
  Sr  Sr2  4  0.000000  0.331833  0.497759  1
  Sr  Sr3  4  0.000000  0.451960  0.415240  1
  B  B4  4  0.000000  0.003364  0.423422  1
