# generated using pymatgen
data_Sr3B5
_symmetry_space_group_name_H-M   C2/m
_cell_length_a   7.40681771
_cell_length_b   5.48423011
_cell_length_c   4.86994592
_cell_angle_alpha   90.00000000
_cell_angle_beta   117.99414775
_cell_angle_gamma   90.00000000
_symmetry_Int_Tables_number   12
_chemical_formula_structural   Sr3B5
_chemical_formula_sum   'Sr6 B10'
_cell_volume   174.67468728
_cell_formula_units_Z   2
loop_
 _symmetry_equiv_pos_site_id
 _symmetry_equiv_pos_as_xyz
  1  'x, y, z'
  2  '-x, -y, -z'
  3  '-x, y, -z'
  4  'x, -y, z'
  5  'x+1/2, y+1/2, z'
  6  '-x+1/2, -y+1/2, -z'
  7  '-x+1/2, y+1/2, -z'
  8  'x+1/2, -y+1/2, z'
loop_
 _atom_site_type_symbol
 _atom_site_label
 _atom_site_symmetry_multiplicity
 _atom_site_fract_x
 _atom_site_fract_y
 _atom_site_fract_z
 _atom_site_occupancy
  Sr  Sr0  4  0.091446  0.500000  0.307358  1
  Sr  Sr1  2  0.000000  0.000000  0.500000  1
  B  B2  8  0.218014  0.144159  0.085374  1
  B  B3  2  0.000000  0.000000  0.000000  1
