# generated using pymatgen
data_Sr14B
_symmetry_space_group_name_H-M   P1
_cell_length_a   5.42249883
_cell_length_b   5.56649198
_cell_length_c   9.64453385
_cell_angle_alpha   101.88106960
_cell_angle_beta   99.74245319
_cell_angle_gamma   94.13092612
_symmetry_Int_Tables_number   1
_chemical_formula_structural   Sr14B
_chemical_formula_sum   'Sr14 B1'
_cell_volume   279.03939999
_cell_formula_units_Z   1
loop_
 _symmetry_equiv_pos_site_id
 _symmetry_equiv_pos_as_xyz
  1  'x, y, z'
loop_
 _atom_site_type_symbol
 _atom_site_label
 _atom_site_symmetry_multiplicity
 _atom_site_fract_x
 _atom_site_fract_y
 _atom_site_fract_z
 _atom_site_occupancy
  Sr  Sr0  1  0.005835  0.328533  0.665520  1
  Sr  Sr1  1  0.034270  0.152993  0.132787  1
  Sr  Sr2  1  0.079429  0.549322  0.431142  1
  Sr  Sr3  1  0.257902  0.911657  0.697279  1
  Sr  Sr4  1  0.274984  0.382015  0.949996  1
  Sr  Sr5  1  0.391704  0.789054  0.280713  1
  Sr  Sr6  1  0.447709  0.866115  0.997301  1
  Sr  Sr7  1  0.471929  0.245168  0.525475  1
  Sr  Sr8  1  0.549181  0.305318  0.244944  1
  Sr  Sr9  1  0.664191  0.743339  0.566967  1
  Sr  Sr10  1  0.704831  0.218879  0.858931  1
  Sr  Sr11  1  0.856880  0.623078  0.128523  1
  Sr  Sr12  1  0.907246  0.758370  0.862116  1
  Sr  Sr13  1  0.925281  0.021894  0.382782  1
  B  B14  1  0.462882  0.542780  0.755842  1
