# generated using pymatgen
data_Sr3B7
_symmetry_space_group_name_H-M   Cm
_cell_length_a   9.03073469
_cell_length_b   4.25057429
_cell_length_c   6.00368927
_cell_angle_alpha   90.00000000
_cell_angle_beta   119.27830148
_cell_angle_gamma   90.00000000
_symmetry_Int_Tables_number   8
_chemical_formula_structural   Sr3B7
_chemical_formula_sum   'Sr6 B14'
_cell_volume   201.01670151
_cell_formula_units_Z   2
loop_
 _symmetry_equiv_pos_site_id
 _symmetry_equiv_pos_as_xyz
  1  'x, y, z'
  2  'x, -y, z'
  3  'x+1/2, y+1/2, z'
  4  'x+1/2, -y+1/2, z'
loop_
 _atom_site_type_symbol
 _atom_site_label
 _atom_site_symmetry_multiplicity
 _atom_site_fract_x
 _atom_site_fract_y
 _atom_site_fract_z
 _atom_site_occupancy
  Sr  Sr0  2  0.054510  0.000000  0.099527  1
  Sr  Sr1  2  0.308924  0.500000  0.312960  1
  Sr  Sr2  2  0.422604  0.000000  0.702352  1
  B  B3  4  0.113285  0.187184  0.567151  1
  B  B4  4  0.236935  0.296226  0.887970  1
  B  B5  2  0.019831  0.500000  0.369915  1
  B  B6  2  0.230838  0.500000  0.652274  1
  B  B7  2  0.352567  0.000000  0.079119  1
