# generated using pymatgen
data_Sr2B
_symmetry_space_group_name_H-M   P2_1/c
_cell_length_a   7.32707239
_cell_length_b   3.06446594
_cell_length_c   8.45789689
_cell_angle_alpha   90.00000000
_cell_angle_beta   106.99783634
_cell_angle_gamma   90.00000000
_symmetry_Int_Tables_number   14
_chemical_formula_structural   Sr2B
_chemical_formula_sum   'Sr8 B4'
_cell_volume   181.61386342
_cell_formula_units_Z   4
loop_
 _symmetry_equiv_pos_site_id
 _symmetry_equiv_pos_as_xyz
  1  'x, y, z'
  2  '-x+3/466, -y, -z+3/932'
  3  '-x+3/466, y+1/2, -z+3/932'
  4  'x, -y+1/2, z'
  5  'x, y, z+1/2'
  6  '-x+3/466, -y, -z+469/932'
  7  '-x+3/466, y+1/2, -z+469/932'
  8  'x, -y+1/2, z+1/2'
loop_
 _atom_site_type_symbol
 _atom_site_label
 _atom_site_symmetry_multiplicity
 _atom_site_fract_x
 _atom_site_fract_y
 _atom_site_fract_z
 _atom_site_occupancy
  Sr  Sr0  4  0.129911  0.224634  0.404842  1
  Sr  Sr1  4  0.319737  0.737342  0.703632  1
  B  B2  4  0.484511  0.249755  0.996932  1
