# generated using pymatgen
data_Sr15B
_symmetry_space_group_name_H-M   Imm2
_cell_length_a   6.35272322
_cell_length_b   14.14459185
_cell_length_c   6.64972626
_cell_angle_alpha   90.00000000
_cell_angle_beta   90.00000000
_cell_angle_gamma   90.00000000
_symmetry_Int_Tables_number   44
_chemical_formula_structural   Sr15B
_chemical_formula_sum   'Sr30 B2'
_cell_volume   597.52230544
_cell_formula_units_Z   2
loop_
 _symmetry_equiv_pos_site_id
 _symmetry_equiv_pos_as_xyz
  1  'x, y, z'
  2  '-x, -y, z'
  3  '-x, y, z'
  4  'x, -y, z'
  5  'x+1/2, y+1/2, z+1/2'
  6  '-x+1/2, -y+1/2, z+1/2'
  7  '-x+1/2, y+1/2, z+1/2'
  8  'x+1/2, -y+1/2, z+1/2'
loop_
 _atom_site_type_symbol
 _atom_site_label
 _atom_site_symmetry_multiplicity
 _atom_site_fract_x
 _atom_site_fract_y
 _atom_site_fract_z
 _atom_site_occupancy
  Sr  Sr0  8  0.222220  0.363509  0.197372  1
  Sr  Sr1  8  0.228297  0.396158  0.782771  1
  Sr  Sr2  4  0.000000  0.204412  0.007229  1
  Sr  Sr3  4  0.000000  0.264803  0.517949  1
  Sr  Sr4  2  0.000000  0.000000  0.005367  1
  Sr  Sr5  2  0.000000  0.000000  0.583774  1
  Sr  Sr6  2  0.000000  0.500000  0.438242  1
  B  B7  2  0.000000  0.500000  0.032144  1
