# generated using pymatgen
data_Sr4B
_symmetry_space_group_name_H-M   C2/c
_cell_length_a   9.65378613
_cell_length_b   12.35970171
_cell_length_c   5.60356631
_cell_angle_alpha   90.00000000
_cell_angle_beta   92.63964244
_cell_angle_gamma   90.00000000
_symmetry_Int_Tables_number   15
_chemical_formula_structural   Sr4B
_chemical_formula_sum   'Sr32 B8'
_cell_volume   667.89643104
_cell_formula_units_Z   8
loop_
 _symmetry_equiv_pos_site_id
 _symmetry_equiv_pos_as_xyz
  1  'x, y, z'
  2  '-x, -y, -z'
  3  '-x, y, -z+1/2'
  4  'x, -y, z+1/2'
  5  'x+1/2, y+1/2, z'
  6  '-x+1/2, -y+1/2, -z'
  7  '-x+1/2, y+1/2, -z+1/2'
  8  'x+1/2, -y+1/2, z+1/2'
loop_
 _atom_site_type_symbol
 _atom_site_label
 _atom_site_symmetry_multiplicity
 _atom_site_fract_x
 _atom_site_fract_y
 _atom_site_fract_z
 _atom_site_occupancy
  Sr  Sr0  8  0.028633  0.387177  0.015794  1
  Sr  Sr1  8  0.130029  0.157733  0.218258  1
  Sr  Sr2  8  0.144061  0.219371  0.733753  1
  Sr  Sr3  8  0.240408  0.463444  0.384802  1
  B  B4  8  0.016801  0.034867  0.887529  1
