# generated using pymatgen
data_Sr12B
_symmetry_space_group_name_H-M   C2/m
_cell_length_a   10.49257436
_cell_length_b   3.13940786
_cell_length_c   14.59948785
_cell_angle_alpha   90.00000000
_cell_angle_beta   92.75909309
_cell_angle_gamma   90.00000000
_symmetry_Int_Tables_number   12
_chemical_formula_structural   Sr12B
_chemical_formula_sum   'Sr24 B2'
_cell_volume   480.35650220
_cell_formula_units_Z   2
loop_
 _symmetry_equiv_pos_site_id
 _symmetry_equiv_pos_as_xyz
  1  'x, y, z'
  2  '-x, -y, -z'
  3  '-x, y, -z'
  4  'x, -y, z'
  5  'x+1/2, y+1/2, z'
  6  '-x+1/2, -y+1/2, -z'
  7  '-x+1/2, y+1/2, -z'
  8  'x+1/2, -y+1/2, z'
loop_
 _atom_site_type_symbol
 _atom_site_label
 _atom_site_symmetry_multiplicity
 _atom_site_fract_x
 _atom_site_fract_y
 _atom_site_fract_z
 _atom_site_occupancy
  Sr  Sr0  4  0.070520  0.000000  0.595021  1
  Sr  Sr1  4  0.074222  0.500000  0.248156  1
  Sr  Sr2  4  0.094907  0.000000  0.885116  1
  Sr  Sr3  4  0.162618  0.500000  0.434559  1
  Sr  Sr4  4  0.167282  0.000000  0.074350  1
  Sr  Sr5  4  0.197040  0.500000  0.731664  1
  B  B6  2  0.000000  0.500000  0.000000  1
