# generated using pymatgen
data_Sr15B
_symmetry_space_group_name_H-M   P1
_cell_length_a   5.40898354
_cell_length_b   5.41375292
_cell_length_c   11.64928628
_cell_angle_alpha   90.74667592
_cell_angle_beta   90.73387156
_cell_angle_gamma   118.35299174
_symmetry_Int_Tables_number   1
_chemical_formula_structural   Sr15B
_chemical_formula_sum   'Sr15 B1'
_cell_volume   300.10758869
_cell_formula_units_Z   1
loop_
 _symmetry_equiv_pos_site_id
 _symmetry_equiv_pos_as_xyz
  1  'x, y, z'
loop_
 _atom_site_type_symbol
 _atom_site_label
 _atom_site_symmetry_multiplicity
 _atom_site_fract_x
 _atom_site_fract_y
 _atom_site_fract_z
 _atom_site_occupancy
  Sr  Sr0  1  0.122408  0.138092  0.864370  1
  Sr  Sr1  1  0.248719  0.274090  0.327603  1
  Sr  Sr2  1  0.331670  0.920303  0.691811  1
  Sr  Sr3  1  0.336752  0.366647  0.556429  1
  Sr  Sr4  1  0.341977  0.920884  0.177700  1
  Sr  Sr5  1  0.446347  0.457369  0.061275  1
  Sr  Sr6  1  0.447487  0.908101  0.431709  1
  Sr  Sr7  1  0.547709  0.979508  0.950485  1
  Sr  Sr8  1  0.584230  0.611435  0.785789  1
  Sr  Sr9  1  0.756694  0.768405  0.263272  1
  Sr  Sr10  1  0.852790  0.865482  0.567562  1
  Sr  Sr11  1  0.882692  0.461613  0.428879  1
  Sr  Sr12  1  0.892240  0.350773  0.693122  1
  Sr  Sr13  1  0.908362  0.354122  0.165861  1
  Sr  Sr14  1  0.967256  0.563428  0.940894  1
  B  B15  1  0.953160  0.953436  0.065083  1
