# generated using pymatgen
data_Sr15B
_symmetry_space_group_name_H-M   Pm
_cell_length_a   6.39544962
_cell_length_b   4.42447200
_cell_length_c   10.44972967
_cell_angle_alpha   90.00000000
_cell_angle_beta   90.16837060
_cell_angle_gamma   90.00000000
_symmetry_Int_Tables_number   6
_chemical_formula_structural   Sr15B
_chemical_formula_sum   'Sr15 B1'
_cell_volume   295.68937109
_cell_formula_units_Z   1
loop_
 _symmetry_equiv_pos_site_id
 _symmetry_equiv_pos_as_xyz
  1  'x, y, z'
  2  'x, -y, z'
loop_
 _atom_site_type_symbol
 _atom_site_label
 _atom_site_symmetry_multiplicity
 _atom_site_fract_x
 _atom_site_fract_y
 _atom_site_fract_z
 _atom_site_occupancy
  Sr  Sr0  1  0.112239  0.500000  0.453093  1
  Sr  Sr1  1  0.200088  0.500000  0.989401  1
  Sr  Sr2  1  0.202333  0.000000  0.818207  1
  Sr  Sr3  1  0.215542  0.000000  0.263145  1
  Sr  Sr4  1  0.353417  0.000000  0.535984  1
  Sr  Sr5  1  0.412743  0.500000  0.710316  1
  Sr  Sr6  1  0.461579  0.500000  0.196162  1
  Sr  Sr7  1  0.616566  0.500000  0.464752  1
  Sr  Sr8  1  0.636623  0.500000  0.960598  1
  Sr  Sr9  1  0.663359  0.000000  0.791940  1
  Sr  Sr10  1  0.687514  0.000000  0.280910  1
  Sr  Sr11  1  0.865593  0.000000  0.544191  1
  Sr  Sr12  1  0.902721  0.000000  0.029727  1
  Sr  Sr13  1  0.936520  0.500000  0.209857  1
  Sr  Sr14  1  0.938989  0.500000  0.719671  1
  B  B15  1  0.445959  0.000000  0.039453  1
