# generated using pymatgen
data_Sr13B2
_symmetry_space_group_name_H-M   P1
_cell_length_a   2.94263761
_cell_length_b   9.73252181
_cell_length_c   10.00791227
_cell_angle_alpha   69.67593964
_cell_angle_beta   89.66620091
_cell_angle_gamma   82.04882754
_symmetry_Int_Tables_number   1
_chemical_formula_structural   Sr13B2
_chemical_formula_sum   'Sr13 B2'
_cell_volume   265.91630636
_cell_formula_units_Z   1
loop_
 _symmetry_equiv_pos_site_id
 _symmetry_equiv_pos_as_xyz
  1  'x, y, z'
loop_
 _atom_site_type_symbol
 _atom_site_label
 _atom_site_symmetry_multiplicity
 _atom_site_fract_x
 _atom_site_fract_y
 _atom_site_fract_z
 _atom_site_occupancy
  Sr  Sr0  1  0.007535  0.215834  0.433075  1
  Sr  Sr1  1  0.052853  0.113071  0.025545  1
  Sr  Sr2  1  0.120144  0.948856  0.639043  1
  Sr  Sr3  1  0.270069  0.758315  0.483097  1
  Sr  Sr4  1  0.277434  0.667603  0.986005  1
  Sr  Sr5  1  0.375268  0.524741  0.277742  1
  Sr  Sr6  1  0.437479  0.349987  0.827825  1
  Sr  Sr7  1  0.593967  0.041881  0.302008  1
  Sr  Sr8  1  0.611944  0.950475  0.886700  1
  Sr  Sr9  1  0.758927  0.801309  0.201434  1
  Sr  Sr10  1  0.807346  0.624051  0.763115  1
  Sr  Sr11  1  0.896768  0.453989  0.547234  1
  Sr  Sr12  1  0.972675  0.364497  0.111950  1
  B  B13  1  0.012537  0.179017  0.720929  1
  B  B14  1  0.507635  0.193888  0.661963  1
