# generated using pymatgen
data_Sr14B
_symmetry_space_group_name_H-M   P-1
_cell_length_a   5.48459130
_cell_length_b   5.53665733
_cell_length_c   9.69795137
_cell_angle_alpha   102.30087130
_cell_angle_beta   100.98596387
_cell_angle_gamma   93.21675443
_symmetry_Int_Tables_number   2
_chemical_formula_structural   Sr14B
_chemical_formula_sum   'Sr14 B1'
_cell_volume   281.01753414
_cell_formula_units_Z   1
loop_
 _symmetry_equiv_pos_site_id
 _symmetry_equiv_pos_as_xyz
  1  'x, y, z'
  2  '-x, -y, -z'
loop_
 _atom_site_type_symbol
 _atom_site_label
 _atom_site_symmetry_multiplicity
 _atom_site_fract_x
 _atom_site_fract_y
 _atom_site_fract_z
 _atom_site_occupancy
  Sr  Sr0  2  0.018497  0.654359  0.273891  1
  Sr  Sr1  2  0.097053  0.750499  0.996151  1
  Sr  Sr2  2  0.188159  0.155180  0.306674  1
  Sr  Sr3  2  0.235849  0.656698  0.578252  1
  Sr  Sr4  2  0.354372  0.055515  0.852867  1
  Sr  Sr5  2  0.440186  0.409153  0.128160  1
  Sr  Sr6  2  0.443256  0.204578  0.602567  1
  B  B7  1  0.000000  0.000000  0.500000  1
