# generated using pymatgen
data_Sr5B4
_symmetry_space_group_name_H-M   Cm
_cell_length_a   18.78353817
_cell_length_b   4.25383865
_cell_length_c   3.03641346
_cell_angle_alpha   90.00000000
_cell_angle_beta   93.56676082
_cell_angle_gamma   90.00000000
_symmetry_Int_Tables_number   8
_chemical_formula_structural   Sr5B4
_chemical_formula_sum   'Sr10 B8'
_cell_volume   242.14598542
_cell_formula_units_Z   2
loop_
 _symmetry_equiv_pos_site_id
 _symmetry_equiv_pos_as_xyz
  1  'x, y, z'
  2  'x, -y, z'
  3  'x+1/2, y+1/2, z'
  4  'x+1/2, -y+1/2, z'
loop_
 _atom_site_type_symbol
 _atom_site_label
 _atom_site_symmetry_multiplicity
 _atom_site_fract_x
 _atom_site_fract_y
 _atom_site_fract_z
 _atom_site_occupancy
  Sr  Sr0  2  0.093302  0.000000  0.290461  1
  Sr  Sr1  2  0.171021  0.500000  0.887177  1
  Sr  Sr2  2  0.256745  0.000000  0.721032  1
  Sr  Sr3  2  0.387549  0.000000  0.284328  1
  Sr  Sr4  2  0.459143  0.500000  0.733914  1
  B  B5  2  0.021280  0.500000  0.239277  1
  B  B6  2  0.033840  0.500000  0.745391  1
  B  B7  2  0.304643  0.500000  0.303065  1
  B  B8  2  0.326319  0.500000  0.812877  1
