# generated using pymatgen
data_SrB10
_symmetry_space_group_name_H-M   P-1
_cell_length_a   4.13053080
_cell_length_b   4.16633503
_cell_length_c   4.82170191
_cell_angle_alpha   80.26857096
_cell_angle_beta   79.98910461
_cell_angle_gamma   70.45508492
_symmetry_Int_Tables_number   2
_chemical_formula_structural   SrB10
_chemical_formula_sum   'Sr1 B10'
_cell_volume   76.45419606
_cell_formula_units_Z   1
loop_
 _symmetry_equiv_pos_site_id
 _symmetry_equiv_pos_as_xyz
  1  'x, y, z'
  2  '-x, -y, -z'
loop_
 _atom_site_type_symbol
 _atom_site_label
 _atom_site_symmetry_multiplicity
 _atom_site_fract_x
 _atom_site_fract_y
 _atom_site_fract_z
 _atom_site_occupancy
  Sr  Sr0  1  0.000000  0.000000  0.500000  1
  B  B1  2  0.006348  0.418397  0.853835  1
  B  B2  2  0.348153  0.710210  0.049212  1
  B  B3  2  0.374132  0.388766  0.630487  1
  B  B4  2  0.396038  0.363953  0.280219  1
  B  B5  2  0.425788  0.032495  0.842761  1
