# generated using pymatgen
data_H2
_symmetry_space_group_name_H-M   Pca2_1
_cell_length_a   3.54866222
_cell_length_b   2.06132783
_cell_length_c   3.28843017
_cell_angle_alpha   90.00000000
_cell_angle_beta   90.00000000
_cell_angle_gamma   90.00000000
_symmetry_Int_Tables_number   29
_chemical_formula_structural   H2
_chemical_formula_sum   H8
_cell_volume   24.05472265
_cell_formula_units_Z   4
loop_
 _symmetry_equiv_pos_site_id
 _symmetry_equiv_pos_as_xyz
  1  'x, y, z'
  2  '-x, -y, z+1/2'
  3  '-x+1/2, y, z+1/2'
  4  'x+1/2, -y, z'
loop_
 _atom_site_type_symbol
 _atom_site_label
 _atom_site_symmetry_multiplicity
 _atom_site_fract_x
 _atom_site_fract_y
 _atom_site_fract_z
 _atom_site_occupancy
  H  H0  4  0.023257  0.359712  0.159332  1
  H  H1  4  0.145947  0.142163  0.280394  1
