# generated using pymatgen
data_BaH22
_symmetry_space_group_name_H-M   C2/m
_cell_length_a   9.38047181
_cell_length_b   3.80108388
_cell_length_c   6.64982666
_cell_angle_alpha   90.00000000
_cell_angle_beta   134.32869408
_cell_angle_gamma   90.00000000
_symmetry_Int_Tables_number   12
_chemical_formula_structural   BaH22
_chemical_formula_sum   'Ba2 H44'
_cell_volume   169.61205494
_cell_formula_units_Z   2
loop_
 _symmetry_equiv_pos_site_id
 _symmetry_equiv_pos_as_xyz
  1  'x, y, z'
  2  '-x, -y, -z'
  3  '-x, y, -z'
  4  'x, -y, z'
  5  'x+1/2, y+1/2, z'
  6  '-x+1/2, -y+1/2, -z'
  7  '-x+1/2, y+1/2, -z'
  8  'x+1/2, -y+1/2, z'
loop_
 _atom_site_type_symbol
 _atom_site_label
 _atom_site_symmetry_multiplicity
 _atom_site_fract_x
 _atom_site_fract_y
 _atom_site_fract_z
 _atom_site_occupancy
  Ba  Ba0  2  0.000000  0.500000  0.500000  1
  H  H1  8  0.139892  0.099831  0.139576  1
  H  H2  8  0.240318  0.289550  0.043345  1
  H  H3  8  0.244827  0.295304  0.443423  1
  H  H4  4  0.048655  0.000000  0.299252  1
  H  H5  4  0.053232  0.500000  0.918488  1
  H  H6  4  0.056828  0.000000  0.770010  1
  H  H7  4  0.058590  0.500000  0.185235  1
  H  H8  4  0.223127  0.000000  0.722708  1
