# generated using pymatgen
data_Ba8H15
_symmetry_space_group_name_H-M   Fmm2
_cell_length_a   6.03997671
_cell_length_b   13.18428876
_cell_length_c   11.35831229
_cell_angle_alpha   90.00000000
_cell_angle_beta   90.00000000
_cell_angle_gamma   90.00000000
_symmetry_Int_Tables_number   42
_chemical_formula_structural   Ba8H15
_chemical_formula_sum   'Ba32 H60'
_cell_volume   904.49417817
_cell_formula_units_Z   4
loop_
 _symmetry_equiv_pos_site_id
 _symmetry_equiv_pos_as_xyz
  1  'x, y, z'
  2  '-x, -y, z'
  3  '-x, y, z'
  4  'x, -y, z'
  5  'x+1/2, y+1/2, z'
  6  '-x+1/2, -y+1/2, z'
  7  '-x+1/2, y+1/2, z'
  8  'x+1/2, -y+1/2, z'
  9  'x+1/2, y, z+1/2'
  10  '-x+1/2, -y, z+1/2'
  11  '-x+1/2, y, z+1/2'
  12  'x+1/2, -y, z+1/2'
  13  'x, y+1/2, z+1/2'
  14  '-x, -y+1/2, z+1/2'
  15  '-x, y+1/2, z+1/2'
  16  'x, -y+1/2, z+1/2'
loop_
 _atom_site_type_symbol
 _atom_site_label
 _atom_site_symmetry_multiplicity
 _atom_site_fract_x
 _atom_site_fract_y
 _atom_site_fract_z
 _atom_site_occupancy
  Ba  Ba0  16  0.247268  0.126837  0.196047  1
  Ba  Ba1  8  0.247717  0.000000  0.449685  1
  Ba  Ba2  8  0.250000  0.250000  0.446307  1
  H  H3  8  0.000000  0.107793  0.852483  1
  H  H4  8  0.000000  0.122967  0.533623  1
  H  H5  8  0.000000  0.124012  0.024917  1
  H  H6  8  0.000000  0.125186  0.365079  1
  H  H7  8  0.000000  0.245811  0.781696  1
  H  H8  8  0.000000  0.248542  0.611428  1
  H  H9  4  0.000000  0.000000  0.113886  1
  H  H10  4  0.000000  0.000000  0.279762  1
  H  H11  4  0.000000  0.000000  0.640663  1
