# generated using pymatgen
data_BaH12
_symmetry_space_group_name_H-M   C2/m
_cell_length_a   7.00560189
_cell_length_b   3.80402643
_cell_length_c   4.93654356
_cell_angle_alpha   90.00000000
_cell_angle_beta   116.76920801
_cell_angle_gamma   90.00000000
_symmetry_Int_Tables_number   12
_chemical_formula_structural   BaH12
_chemical_formula_sum   'Ba2 H24'
_cell_volume   117.45722988
_cell_formula_units_Z   2
loop_
 _symmetry_equiv_pos_site_id
 _symmetry_equiv_pos_as_xyz
  1  'x, y, z'
  2  '-x, -y, -z'
  3  '-x, y, -z'
  4  'x, -y, z'
  5  'x+1/2, y+1/2, z'
  6  '-x+1/2, -y+1/2, -z'
  7  '-x+1/2, y+1/2, -z'
  8  'x+1/2, -y+1/2, z'
loop_
 _atom_site_type_symbol
 _atom_site_label
 _atom_site_symmetry_multiplicity
 _atom_site_fract_x
 _atom_site_fract_y
 _atom_site_fract_z
 _atom_site_occupancy
  Ba  Ba0  2  0.000000  0.500000  0.000000  1
  H  H1  8  0.246494  0.299107  0.565374  1
  H  H2  4  0.030633  0.000000  0.652205  1
  H  H3  4  0.058108  0.500000  0.562734  1
  H  H4  4  0.114338  0.000000  0.823388  1
  H  H5  4  0.228128  0.000000  0.149823  1
