# generated using pymatgen
data_B
_symmetry_space_group_name_H-M   C2/m
_cell_length_a   5.35376963
_cell_length_b   2.70613187
_cell_length_c   4.75981895
_cell_angle_alpha   90.00000000
_cell_angle_beta   100.79690417
_cell_angle_gamma   90.00000000
_symmetry_Int_Tables_number   12
_chemical_formula_structural   B
_chemical_formula_sum   B12
_cell_volume   67.73951045
_cell_formula_units_Z   12
loop_
 _symmetry_equiv_pos_site_id
 _symmetry_equiv_pos_as_xyz
  1  'x, y, z'
  2  '-x, -y, -z'
  3  '-x, y, -z'
  4  'x, -y, z'
  5  'x+1/2, y+1/2, z'
  6  '-x+1/2, -y+1/2, -z'
  7  '-x+1/2, y+1/2, -z'
  8  'x+1/2, -y+1/2, z'
loop_
 _atom_site_type_symbol
 _atom_site_label
 _atom_site_symmetry_multiplicity
 _atom_site_fract_x
 _atom_site_fract_y
 _atom_site_fract_z
 _atom_site_occupancy
  B  B0  4  0.079320  0.000000  0.870650  1
  B  B1  4  0.158155  0.000000  0.548053  1
  B  B2  4  0.242293  0.500000  0.776026  1
