# generated using pymatgen
data_SrB10
_symmetry_space_group_name_H-M   Pmm2
_cell_length_a   4.30414940
_cell_length_b   5.97163952
_cell_length_c   2.91132199
_cell_angle_alpha   90.00000000
_cell_angle_beta   90.00000000
_cell_angle_gamma   90.00000000
_symmetry_Int_Tables_number   25
_chemical_formula_structural   SrB10
_chemical_formula_sum   'Sr1 B10'
_cell_volume   74.82921017
_cell_formula_units_Z   1
loop_
 _symmetry_equiv_pos_site_id
 _symmetry_equiv_pos_as_xyz
  1  'x, y, z'
  2  '-x, -y, z'
  3  '-x, y, z'
  4  'x, -y, z'
loop_
 _atom_site_type_symbol
 _atom_site_label
 _atom_site_symmetry_multiplicity
 _atom_site_fract_x
 _atom_site_fract_y
 _atom_site_fract_z
 _atom_site_occupancy
  Sr  Sr0  1  0.000000  0.000000  0.552329  1
  B  B1  4  0.198669  0.349978  0.008291  1
  B  B2  2  0.299002  0.500000  0.514843  1
  B  B3  2  0.500000  0.139245  0.109612  1
  B  B4  2  0.500000  0.269788  0.615648  1
