# generated using pymatgen
data_Sr2B3
_symmetry_space_group_name_H-M   C2/m
_cell_length_a   8.21053831
_cell_length_b   4.13268431
_cell_length_c   6.86357887
_cell_angle_alpha   90.00000000
_cell_angle_beta   105.19004812
_cell_angle_gamma   90.00000000
_symmetry_Int_Tables_number   12
_chemical_formula_structural   Sr2B3
_chemical_formula_sum   'Sr8 B12'
_cell_volume   224.75518328
_cell_formula_units_Z   4
loop_
 _symmetry_equiv_pos_site_id
 _symmetry_equiv_pos_as_xyz
  1  'x, y, z'
  2  '-x, -y, -z'
  3  '-x, y, -z'
  4  'x, -y, z'
  5  'x+1/2, y+1/2, z'
  6  '-x+1/2, -y+1/2, -z'
  7  '-x+1/2, y+1/2, -z'
  8  'x+1/2, -y+1/2, z'
loop_
 _atom_site_type_symbol
 _atom_site_label
 _atom_site_symmetry_multiplicity
 _atom_site_fract_x
 _atom_site_fract_y
 _atom_site_fract_z
 _atom_site_occupancy
  Sr  Sr0  4  0.146416  0.500000  0.862950  1
  Sr  Sr1  4  0.215067  0.500000  0.315697  1
  B  B2  4  0.000000  0.301159  0.500000  1
  B  B3  4  0.025984  0.000000  0.112804  1
  B  B4  4  0.039882  0.000000  0.350605  1
